<?xml version="1.0" encoding="UTF-8"?>

<!-- generated on 2024-06-09 16:26:35.103861 by randomTrips.py UNKNOWN
<configuration>
    <net-file value="config/osm.net.xml.gz"/>
    <route-file value="config/osm.passenger.trips.xml"/>
    <length value="True"/>
    <end value="10000.0"/>
    <insertion-density value="12.0"/>
</configuration>
-->

<routes xmlns:xsi="http://www.w3.org/2001/XMLSchema-instance" xsi:noNamespaceSchemaLocation="http://sumo.dlr.de/xsd/routes_file.xsd">
    <trip id="0" depart="0.00" from="182567485#1" to="-170316859#12"/>
    <trip id="1" depart="2.41" from="-190064679#0" to="-186160018#2"/>
    <trip id="2" depart="4.81" from="186396281#2" to="182903320#0"/>
    <trip id="3" depart="7.22" from="98897108#0" to="-182516769"/>
    <trip id="4" depart="9.62" from="-99839727" to="-182263854#0"/>
    <trip id="5" depart="12.03" from="-186155232#1" to="182256519#1"/>
    <trip id="6" depart="14.44" from="-170316859#5" to="-182903322"/>
    <trip id="7" depart="16.84" from="182567498" to="182516745"/>
    <trip id="8" depart="19.25" from="-186155236#0" to="182518160#2"/>
    <trip id="9" depart="21.66" from="62124263#3" to="-1105449988#1"/>
    <trip id="10" depart="24.06" from="58401204#6" to="186155236#4"/>
    <trip id="11" depart="26.47" from="-98897042#1" to="-182567484#2"/>
    <trip id="12" depart="28.87" from="99839748#1" to="-98897051#3"/>
    <trip id="13" depart="31.28" from="-182516773#1" to="-182517353"/>
    <trip id="14" depart="33.69" from="98889237#1" to="182518172#1"/>
    <trip id="15" depart="36.09" from="58600971#0" to="186378020#2"/>
    <trip id="16" depart="38.50" from="182516712#1" to="99839792#0"/>
    <trip id="17" depart="40.90" from="-99839625#0" to="182516752#1"/>
    <trip id="18" depart="43.31" from="830281121" to="182564500#0"/>
    <trip id="19" depart="45.72" from="98897033#0" to="182517359#2"/>
    <trip id="20" depart="48.12" from="186155236#6" to="-182408027#11"/>
    <trip id="21" depart="50.53" from="-186160018#2" to="-62124263#2"/>
    <trip id="22" depart="52.94" from="-182516755#0" to="-186185733#5"/>
    <trip id="23" depart="55.34" from="-182517355" to="-31738979#13"/>
    <trip id="24" depart="57.75" from="182567476#1" to="-98897120#1"/>
    <trip id="25" depart="60.15" from="-98897116#3" to="-186151974#0"/>
    <trip id="26" depart="62.56" from="-190062913#2" to="99839672#3"/>
    <trip id="27" depart="64.97" from="182567495#1" to="182518176#3"/>
    <trip id="28" depart="67.37" from="-182567497#1" to="186378020#1"/>
    <trip id="29" depart="69.78" from="-182567485#4" to="-99839631#10"/>
    <trip id="30" depart="72.18" from="99839813" to="182567493#0"/>
    <trip id="31" depart="74.59" from="182516748#2" to="186145511#7"/>
    <trip id="32" depart="77.00" from="98335029#9" to="294669649#6"/>
    <trip id="33" depart="79.40" from="-186185720#1" to="-182263860#3"/>
    <trip id="34" depart="81.81" from="-98335029#4" to="-190064679#0"/>
    <trip id="35" depart="84.22" from="-186151961" to="99839711#0"/>
    <trip id="36" depart="86.62" from="98897058" to="-98889237#0"/>
    <trip id="37" depart="89.03" from="182567506#0" to="-99839664#11"/>
    <trip id="38" depart="91.43" from="99839628#2" to="1054761589#2"/>
    <trip id="39" depart="93.84" from="-190062912" to="-186378017"/>
    <trip id="40" depart="96.25" from="182516754#1" to="-190064676#1"/>
    <trip id="41" depart="98.65" from="182517362" to="98897116#3"/>
    <trip id="42" depart="101.06" from="-99839658#2" to="-186155236#6"/>
    <trip id="43" depart="103.46" from="99847553" to="182263860#8"/>
    <trip id="44" depart="105.87" from="-182516768" to="-182408027#2"/>
    <trip id="45" depart="108.28" from="-182518151" to="182567474#2"/>
    <trip id="46" depart="110.68" from="31738930#14" to="-99839764#4"/>
    <trip id="47" depart="113.09" from="-182516732#0" to="-99839631#5"/>
    <trip id="48" depart="115.50" from="99839830#0" to="182516715#0"/>
    <trip id="49" depart="117.90" from="99839781#3" to="98897037"/>
    <trip id="50" depart="120.31" from="-1110047457#2" to="186378010#1"/>
    <trip id="51" depart="122.71" from="182903317#1" to="182516727#1"/>
    <trip id="52" depart="125.12" from="-190062913#2" to="182567494#0"/>
    <trip id="53" depart="127.53" from="-182518153" to="-99839792#1"/>
    <trip id="54" depart="129.93" from="-99839808#3" to="99839743"/>
    <trip id="55" depart="132.34" from="98897057#5" to="-190064676#2"/>
    <trip id="56" depart="134.74" from="1149388756#1" to="-182567519"/>
    <trip id="57" depart="137.15" from="99839626" to="98897057#0"/>
    <trip id="58" depart="139.56" from="-688396666" to="182567491#1"/>
    <trip id="59" depart="141.96" from="182518171#0" to="-182567476#0"/>
    <trip id="60" depart="144.37" from="294669643#10" to="182516735#1"/>
    <trip id="61" depart="146.78" from="294669649#6" to="182516715#4"/>
    <trip id="62" depart="149.18" from="-1051567513" to="-98897017"/>
    <trip id="63" depart="151.59" from="-1149388754#0" to="99839658#2"/>
    <trip id="64" depart="153.99" from="98897068#3" to="830281130#3"/>
    <trip id="65" depart="156.40" from="-830281126#1" to="-182516724#2"/>
    <trip id="66" depart="158.81" from="98897068#1" to="99839718#0"/>
    <trip id="67" depart="161.21" from="-182516763#2" to="1111803704"/>
    <trip id="68" depart="163.62" from="-182516743#0" to="294669643#3"/>
    <trip id="69" depart="166.02" from="294669643#8" to="-182518172#3"/>
    <trip id="70" depart="168.43" from="1069204468#6" to="182516749#1"/>
    <trip id="71" depart="170.84" from="-190062912" to="98897057#5"/>
    <trip id="72" depart="173.24" from="-99839741#1" to="-186151976#5"/>
    <trip id="73" depart="175.65" from="182516715#6" to="186378020#2"/>
    <trip id="74" depart="178.06" from="-182903317#0" to="-98335030#0"/>
    <trip id="75" depart="180.46" from="99839830#0" to="182567506#0"/>
    <trip id="76" depart="182.87" from="-99839781#2" to="182295567#2"/>
    <trip id="77" depart="185.27" from="-182518164#5" to="-186185720#3"/>
    <trip id="78" depart="187.68" from="-98897033#3" to="182518160#0"/>
    <trip id="79" depart="190.09" from="-186185720#6" to="-186155236#7"/>
    <trip id="80" depart="192.49" from="-182516745" to="182567477#1"/>
    <trip id="81" depart="194.90" from="-186185720#1" to="99836129#0"/>
    <trip id="82" depart="197.30" from="98897022#1" to="-182516748#1"/>
    <trip id="83" depart="199.71" from="-186185733#7" to="182903278#1"/>
    <trip id="84" depart="202.12" from="-186151974#1" to="-182518176#3"/>
    <trip id="85" depart="204.52" from="99839664#12" to="182516775"/>
    <trip id="86" depart="206.93" from="1069204468#1" to="31738930#0"/>
    <trip id="87" depart="209.34" from="58600971#2" to="-182903278#1"/>
    <trip id="88" depart="211.74" from="-182516776#1" to="-99839784"/>
    <trip id="89" depart="214.15" from="-99839741#1" to="1069204468#9"/>
    <trip id="90" depart="216.55" from="186378010#8" to="182903303"/>
    <trip id="91" depart="218.96" from="99839804#1" to="-182517359#2"/>
    <trip id="92" depart="221.37" from="-99839664#11" to="-98897055#3"/>
    <trip id="93" depart="223.77" from="98897033#0" to="-186378020#2"/>
    <trip id="94" depart="226.18" from="-182568143#1" to="-99839821#1"/>
    <trip id="95" depart="228.58" from="-99839727" to="-31738979#17"/>
    <trip id="96" depart="230.99" from="-186378011#0" to="99839635#2"/>
    <trip id="97" depart="233.40" from="-99839792#2" to="98897037"/>
    <trip id="98" depart="235.80" from="182516739#5" to="-182408027#8"/>
    <trip id="99" depart="238.21" from="99847614#0" to="98335029#0"/>
    <trip id="100" depart="240.62" from="99839773#2" to="99839657"/>
    <trip id="101" depart="243.02" from="98889247#1" to="-182567497#0"/>
    <trip id="102" depart="245.43" from="1108574775#1" to="-186155232#0"/>
    <trip id="103" depart="247.83" from="-99839659" to="-182516726"/>
    <trip id="104" depart="250.24" from="-99839625#0" to="99839808#0"/>
    <trip id="105" depart="252.65" from="-190062912" to="31738926#2"/>
    <trip id="106" depart="255.05" from="-99839809#1" to="-99839768#0"/>
    <trip id="107" depart="257.46" from="99839753#0" to="99839834#0"/>
    <trip id="108" depart="259.86" from="182516748#0" to="186185746#1"/>
    <trip id="109" depart="262.27" from="-182567474#2" to="-830281102#0"/>
    <trip id="110" depart="264.68" from="99839773#2" to="182517363#2"/>
    <trip id="111" depart="267.08" from="182516724#0" to="190064677#0"/>
    <trip id="112" depart="269.49" from="-182516718" to="182518153"/>
    <trip id="113" depart="271.90" from="1153978378" to="98897016#1"/>
    <trip id="114" depart="274.30" from="-182567476#1" to="99839764#1"/>
    <trip id="115" depart="276.71" from="-182516755#1" to="-182568143#0"/>
    <trip id="116" depart="279.11" from="182518160#0" to="182903310"/>
    <trip id="117" depart="281.52" from="-186185731#1" to="-182518166#0"/>
    <trip id="118" depart="283.93" from="98897100#5" to="-186378017"/>
    <trip id="119" depart="286.33" from="182518159#3" to="182564500#2"/>
    <trip id="120" depart="288.74" from="-99839723" to="182518152"/>
    <trip id="121" depart="291.14" from="182286386#7" to="99839664#6"/>
    <trip id="122" depart="293.55" from="-182903331#0" to="186185745#0"/>
    <trip id="123" depart="295.96" from="-186185736#2" to="-99839664#12"/>
    <trip id="124" depart="298.36" from="182568152" to="-830281126#0"/>
    <trip id="125" depart="300.77" from="-98335029#6" to="210883018"/>
    <trip id="126" depart="303.18" from="-182516747" to="1054761589#1"/>
    <trip id="127" depart="305.58" from="99847602#0" to="99847553"/>
    <trip id="128" depart="307.99" from="-182516748#1" to="-186153347#3"/>
    <trip id="129" depart="310.39" from="-190062912" to="99839664#12"/>
    <trip id="130" depart="312.80" from="98897069#5" to="98897079"/>
    <trip id="131" depart="315.21" from="-98897116#1" to="-182567485#2"/>
    <trip id="132" depart="317.61" from="830281130#0" to="186160018#2"/>
    <trip id="133" depart="320.02" from="182518172#3" to="99839809#0"/>
    <trip id="134" depart="322.42" from="182567504#3" to="-1108574882#0"/>
    <trip id="135" depart="324.83" from="688396682#4" to="-830281124#2"/>
    <trip id="136" depart="327.24" from="182567520" to="99839690#3"/>
    <trip id="137" depart="329.64" from="-182518175#0" to="-182518164#1"/>
    <trip id="138" depart="332.05" from="-182517364#2" to="182516754#1"/>
    <trip id="139" depart="334.46" from="-190064677#0" to="182518172#3"/>
    <trip id="140" depart="336.86" from="186185733#5" to="-186145511#1"/>
    <trip id="141" depart="339.27" from="182567475#2" to="-190064676#3"/>
    <trip id="142" depart="341.67" from="1110046277#1" to="99836129#0"/>
    <trip id="143" depart="344.08" from="98335034#2" to="-182516775"/>
    <trip id="144" depart="346.49" from="-99839741#1" to="-31738979#1"/>
    <trip id="145" depart="348.89" from="-1069204468#3" to="294669649#1"/>
    <trip id="146" depart="351.30" from="182567484#0" to="-190064676#0"/>
    <trip id="147" depart="353.70" from="187125537" to="182516752#0"/>
    <trip id="148" depart="356.11" from="-99839758#0" to="-1110046277#0"/>
    <trip id="149" depart="358.52" from="-182516750#0" to="98897097#2"/>
    <trip id="150" depart="360.92" from="99333463#2" to="182516745"/>
    <trip id="151" depart="363.33" from="830281130#3" to="182517366#0"/>
    <trip id="152" depart="365.74" from="-182564507#0" to="-182518172#2"/>
    <trip id="153" depart="368.14" from="-830281128" to="98897120#1"/>
    <trip id="154" depart="370.55" from="31738979#1" to="98897037"/>
    <trip id="155" depart="372.95" from="98897116#0" to="-186151974#1"/>
    <trip id="156" depart="375.36" from="-186378011#0" to="-182517364#2"/>
    <trip id="157" depart="377.77" from="294669649#7" to="98897097#4"/>
    <trip id="158" depart="380.17" from="-99839672#2" to="182564500#3"/>
    <trip id="159" depart="382.58" from="-182567474#2" to="99839658#5"/>
    <trip id="160" depart="384.98" from="98897042#0" to="99839794#1"/>
    <trip id="161" depart="387.39" from="62124470#3" to="98897092#1"/>
    <trip id="162" depart="389.80" from="-170316859#11" to="187125517"/>
    <trip id="163" depart="392.20" from="-98897018" to="99839659"/>
    <trip id="164" depart="394.61" from="58401204#12" to="98897047#1"/>
    <trip id="165" depart="397.02" from="62124470#3" to="-190064678#0"/>
    <trip id="166" depart="399.42" from="31738926#2" to="-182518153"/>
    <trip id="167" depart="401.83" from="98897055#6" to="98897022#6"/>
    <trip id="168" depart="404.23" from="-186155236#4" to="688396682#8"/>
    <trip id="169" depart="406.64" from="-99847555" to="-88965376"/>
    <trip id="170" depart="409.05" from="31738930#9" to="-186185722#3"/>
    <trip id="171" depart="411.45" from="-170316859#0" to="-182903300#0"/>
    <trip id="172" depart="413.86" from="-98897011" to="98897047#2"/>
    <trip id="173" depart="416.26" from="99839771" to="-31738979#2"/>
    <trip id="174" depart="418.67" from="182567485#4" to="-99839672#3"/>
    <trip id="175" depart="421.08" from="99839799#0" to="182516726"/>
    <trip id="176" depart="423.48" from="99839672#3" to="-182518164#1"/>
    <trip id="177" depart="425.89" from="99839779" to="-182567519"/>
    <trip id="178" depart="428.30" from="99839764#3" to="-190064677#0"/>
    <trip id="179" depart="430.70" from="-182517365#4" to="-99839792#1"/>
    <trip id="180" depart="433.11" from="186378010#6" to="-98335034#1"/>
    <trip id="181" depart="435.51" from="182518168#6" to="182286386#0"/>
    <trip id="182" depart="437.92" from="-99839629#4" to="182517356"/>
    <trip id="183" depart="440.33" from="-186390869" to="186185722#5"/>
    <trip id="184" depart="442.73" from="-1069204468#0" to="99839652#2"/>
    <trip id="185" depart="445.14" from="182516715#4" to="186378003"/>
    <trip id="186" depart="447.54" from="187125537" to="182903285#1"/>
    <trip id="187" depart="449.95" from="-98897100#3" to="-182516747"/>
    <trip id="188" depart="452.36" from="182567522" to="-98897033#1"/>
    <trip id="189" depart="454.76" from="-98335029#0" to="98889247#5"/>
    <trip id="190" depart="457.17" from="186185737" to="-830281126#1"/>
    <trip id="191" depart="459.58" from="-830281130#2" to="-99839716#1"/>
    <trip id="192" depart="461.98" from="-99839664#10" to="-830281099#1"/>
    <trip id="193" depart="464.39" from="-182518168#7" to="-99839761#0"/>
    <trip id="194" depart="466.79" from="99839683" to="182903322"/>
    <trip id="195" depart="469.20" from="99333463#0" to="182564498#1"/>
    <trip id="196" depart="471.61" from="-830281097#0" to="182516748#0"/>
    <trip id="197" depart="474.01" from="-1051567513" to="-58401204#7"/>
    <trip id="198" depart="476.42" from="-99839764#4" to="182517364#0"/>
    <trip id="199" depart="478.82" from="182567505" to="1069204468#4"/>
    <trip id="200" depart="481.23" from="-99839792#0" to="-186155232#0"/>
    <trip id="201" depart="483.64" from="1069204468#2" to="99333463#1"/>
    <trip id="202" depart="486.04" from="31738979#1" to="-182567500#2"/>
    <trip id="203" depart="488.45" from="-182516763#0" to="182286386#8"/>
    <trip id="204" depart="490.86" from="182567474#2" to="-98897047#4"/>
    <trip id="205" depart="493.26" from="688396682#5" to="190064679#1"/>
    <trip id="206" depart="495.67" from="182569283" to="-186185720#3"/>
    <trip id="207" depart="498.07" from="-182903303" to="-170316859#10"/>
    <trip id="208" depart="500.48" from="-186378010#0" to="1108574775#1"/>
    <trip id="209" depart="502.89" from="98889247#3" to="-182516750#1"/>
    <trip id="210" depart="505.29" from="-99839711#2" to="182567476#0"/>
    <trip id="211" depart="507.70" from="-182903278#1" to="186155236#10"/>
    <trip id="212" depart="510.10" from="1110690430" to="-186378010#8"/>
    <trip id="213" depart="512.51" from="182567508" to="-1069204468#8"/>
    <trip id="214" depart="514.92" from="190064677#0" to="294669649#1"/>
    <trip id="215" depart="517.32" from="-182517364#2" to="-99839769#1"/>
    <trip id="216" depart="519.73" from="-182567504#3" to="99839757"/>
    <trip id="217" depart="522.14" from="182282880#1" to="-182408027#6"/>
    <trip id="218" depart="524.54" from="-186378010#9" to="98889272#0"/>
    <trip id="219" depart="526.95" from="-99839821#1" to="58401204#18"/>
    <trip id="220" depart="529.35" from="182567528" to="99839813"/>
    <trip id="221" depart="531.76" from="182518160#0" to="99839725"/>
    <trip id="222" depart="534.17" from="98897103#1" to="182564486#2"/>
    <trip id="223" depart="536.57" from="186185736#2" to="182256519#0"/>
    <trip id="224" depart="538.98" from="830281123" to="182516748#0"/>
    <trip id="225" depart="541.38" from="98897114#0" to="190064675#0"/>
    <trip id="226" depart="543.79" from="1069204468#5" to="-190062913#1"/>
    <trip id="227" depart="546.20" from="-186378010#2" to="182567488#2"/>
    <trip id="228" depart="548.60" from="294669643#8" to="182295571#6"/>
    <trip id="229" depart="551.01" from="182564507#0" to="-31738926#0"/>
    <trip id="230" depart="553.42" from="-182516752#2" to="-58401204#4"/>
    <trip id="231" depart="555.82" from="-190064676#7" to="-98889272#2"/>
    <trip id="232" depart="558.23" from="182516718" to="-182564498#1"/>
    <trip id="233" depart="560.63" from="-186185720#6" to="186155232#4"/>
    <trip id="234" depart="563.04" from="186155236#8" to="-182516737#1"/>
    <trip id="235" depart="565.45" from="-99839680" to="182516739#5"/>
    <trip id="236" depart="567.85" from="-99839716#1" to="-186151961"/>
    <trip id="237" depart="570.26" from="-99839725" to="99836124#0"/>
    <trip id="238" depart="572.66" from="182517359#2" to="186155236#1"/>
    <trip id="239" depart="575.07" from="98897018" to="294669647#2"/>
    <trip id="240" depart="577.48" from="-99839626" to="-1069204468#9"/>
    <trip id="241" depart="579.88" from="-98897058" to="294669642#0"/>
    <trip id="242" depart="582.29" from="98897011" to="99839741#1"/>
    <trip id="243" depart="584.70" from="-99839723" to="190064676#7"/>
    <trip id="244" depart="587.10" from="182516732#0" to="182518172#0"/>
    <trip id="245" depart="589.51" from="-186155236#0" to="-186155236#6"/>
    <trip id="246" depart="591.91" from="-99839773#1" to="-182256519#2"/>
    <trip id="247" depart="594.32" from="-98897022#5" to="182903331#0"/>
    <trip id="248" depart="596.73" from="-99839664#3" to="-182567495#0"/>
    <trip id="249" depart="599.13" from="1054761589#0" to="-182518172#2"/>
    <trip id="250" depart="601.54" from="182564498#1" to="-170316859#7"/>
    <trip id="251" depart="603.94" from="-99839635#5" to="182516766#1"/>
    <trip id="252" depart="606.35" from="-170316859#7" to="182567497#0"/>
    <trip id="253" depart="608.76" from="-182518176#0" to="1054761592"/>
    <trip id="254" depart="611.16" from="-182408027#4" to="-99839631#1"/>
    <trip id="255" depart="613.57" from="-186151963" to="-98897022#1"/>
    <trip id="256" depart="615.98" from="294669643#0" to="-99839631#1"/>
    <trip id="257" depart="618.38" from="190064678#0" to="830281130#3"/>
    <trip id="258" depart="620.79" from="-186378017" to="-182516761#2"/>
    <trip id="259" depart="623.19" from="-1149388754#0" to="182516735#1"/>
    <trip id="260" depart="625.60" from="99847614#0" to="-98897079"/>
    <trip id="261" depart="628.01" from="182567498" to="31738922#0"/>
    <trip id="262" depart="630.41" from="182567500#2" to="294669642#0"/>
    <trip id="263" depart="632.82" from="99839722#0" to="-182903328"/>
    <trip id="264" depart="635.22" from="-1149388754#3" to="-182567475#3"/>
    <trip id="265" depart="637.63" from="-182518168#4" to="182903284"/>
    <trip id="266" depart="640.04" from="182516756#0" to="-186155236#5"/>
    <trip id="267" depart="642.44" from="186155236#0" to="294669647#5"/>
    <trip id="268" depart="644.85" from="-182567493#2" to="182518175#0"/>
    <trip id="269" depart="647.26" from="190064676#1" to="-182518163"/>
    <trip id="270" depart="649.66" from="688396682#8" to="99839770"/>
    <trip id="271" depart="652.07" from="-182517365#2" to="-170316859#3"/>
    <trip id="272" depart="654.47" from="-88965376" to="182903322"/>
    <trip id="273" depart="656.88" from="99839753#1" to="-99839664#2"/>
    <trip id="274" depart="659.29" from="186185731#0" to="-182516754#1"/>
    <trip id="275" depart="661.69" from="186151961" to="182567474#2"/>
    <trip id="276" depart="664.10" from="-182517359#1" to="294669649#2"/>
    <trip id="277" depart="666.50" from="98889247#4" to="182518168#7"/>
    <trip id="278" depart="668.91" from="-182518164#5" to="99839804#2"/>
    <trip id="279" depart="671.32" from="31738921#2" to="-98897068#4"/>
    <trip id="280" depart="673.72" from="-99839758#2" to="-99836156"/>
    <trip id="281" depart="676.13" from="170316859#1" to="-98897057#1"/>
    <trip id="282" depart="678.54" from="98889247#3" to="830281097#1"/>
    <trip id="283" depart="680.94" from="-182517363#2" to="99839764#1"/>
    <trip id="284" depart="683.35" from="182567476#1" to="830281124#2"/>
    <trip id="285" depart="685.75" from="186160017#1" to="-99839794#0"/>
    <trip id="286" depart="688.16" from="186378020#1" to="99839771"/>
    <trip id="287" depart="690.57" from="-190064676#1" to="688396666"/>
    <trip id="288" depart="692.97" from="182516715#4" to="1110690343#0"/>
    <trip id="289" depart="695.38" from="-99839773#1" to="186390869"/>
    <trip id="290" depart="697.78" from="-190064675#2" to="98897013"/>
    <trip id="291" depart="700.19" from="830281124#0" to="-182516767#1"/>
    <trip id="292" depart="702.60" from="98897079" to="-186378010#8"/>
    <trip id="293" depart="705.00" from="1054761588#1" to="182518177#0"/>
    <trip id="294" depart="707.41" from="-99839625#0" to="-182256519#0"/>
    <trip id="295" depart="709.82" from="98889247#5" to="-182567523"/>
    <trip id="296" depart="712.22" from="-186151964" to="31738979#7"/>
    <trip id="297" depart="714.63" from="-98897042#1" to="98897086"/>
    <trip id="298" depart="717.03" from="186155236#10" to="-31738979#1"/>
    <trip id="299" depart="719.44" from="-1110046945" to="99839722#1"/>
    <trip id="300" depart="721.85" from="-182516763#2" to="186378006"/>
    <trip id="301" depart="724.25" from="1110046277#1" to="294669643#0"/>
    <trip id="302" depart="726.66" from="186151961" to="182567500#1"/>
    <trip id="303" depart="729.06" from="1110047457#2" to="31738979#1"/>
    <trip id="304" depart="731.47" from="-182516773#2" to="-186155236#9"/>
    <trip id="305" depart="733.88" from="186151964" to="-88965380"/>
    <trip id="306" depart="736.28" from="182517352#2" to="1108574774#2"/>
    <trip id="307" depart="738.69" from="182408027#12" to="-99839770"/>
    <trip id="308" depart="741.10" from="190062915#0" to="-98897033#3"/>
    <trip id="309" depart="743.50" from="186155236#4" to="-31738921#1"/>
    <trip id="310" depart="745.91" from="-186378017" to="-182518166#2"/>
    <trip id="311" depart="748.31" from="-182569283" to="-182518166#0"/>
    <trip id="312" depart="750.72" from="182516712#0" to="294669643#6"/>
    <trip id="313" depart="753.13" from="-182567522" to="-186155236#1"/>
    <trip id="314" depart="755.53" from="1108574775#0" to="186378010#9"/>
    <trip id="315" depart="757.94" from="99839794#0" to="182408027#2"/>
    <trip id="316" depart="760.34" from="-31738926#2" to="-182517363#0"/>
    <trip id="317" depart="762.75" from="-182903278#1" to="-186185722#2"/>
    <trip id="318" depart="765.16" from="-182567513" to="-1110690305"/>
    <trip id="319" depart="767.56" from="182408027#5" to="-31738922#4"/>
    <trip id="320" depart="769.97" from="99839792#0" to="182516754#1"/>
    <trip id="321" depart="772.38" from="186155232#0" to="-182518171#1"/>
    <trip id="322" depart="774.78" from="98897051#3" to="1149388756#0"/>
    <trip id="323" depart="777.19" from="98897055#7" to="182517352#1"/>
    <trip id="324" depart="779.59" from="1054761589#3" to="-99839799#5"/>
    <trip id="325" depart="782.00" from="-182567521" to="-182516712#1"/>
    <trip id="326" depart="784.41" from="99839690#1" to="1109659898#0"/>
    <trip id="327" depart="786.81" from="688396689#4" to="-99839680"/>
    <trip id="328" depart="789.22" from="-182516748#2" to="182567476#0"/>
    <trip id="329" depart="791.62" from="-182516714" to="-182567473#8"/>
    <trip id="330" depart="794.03" from="182516755#1" to="-864621430"/>
    <trip id="331" depart="796.44" from="99839827#2" to="-182518165#1"/>
    <trip id="332" depart="798.84" from="294669643#6" to="182518172#4"/>
    <trip id="333" depart="801.25" from="31738930#13" to="-186185720#6"/>
    <trip id="334" depart="803.66" from="182286386#6" to="-99839829#1"/>
    <trip id="335" depart="806.06" from="-99839792#1" to="98897033#3"/>
    <trip id="336" depart="808.47" from="99839813" to="-88965376"/>
    <trip id="337" depart="810.87" from="182564494" to="182518177#0"/>
    <trip id="338" depart="813.28" from="187125517" to="99839722#0"/>
    <trip id="339" depart="815.69" from="-186145511#1" to="-186151976#1"/>
    <trip id="340" depart="818.09" from="182567518#0" to="-182567485#1"/>
    <trip id="341" depart="820.50" from="-182567502" to="-182516754#0"/>
    <trip id="342" depart="822.90" from="-1069204468#2" to="-99839829#1"/>
    <trip id="343" depart="825.31" from="182518159#1" to="-62124470#3"/>
    <trip id="344" depart="827.72" from="-186185720#6" to="186185720#6"/>
    <trip id="345" depart="830.12" from="186155236#4" to="-99847614#2"/>
    <trip id="346" depart="832.53" from="186145511#1" to="99839635#5"/>
    <trip id="347" depart="834.94" from="31738930#0" to="182567473#3"/>
    <trip id="348" depart="837.34" from="182567518#1" to="99839664#2"/>
    <trip id="349" depart="839.75" from="-99839748#1" to="182516743#1"/>
    <trip id="350" depart="842.15" from="182567495#0" to="99839625#0"/>
    <trip id="351" depart="844.56" from="830281099#1" to="-182516748#2"/>
    <trip id="352" depart="846.97" from="-182567491#1" to="-98335029#3"/>
    <trip id="353" depart="849.37" from="190064676#2" to="182516774#0"/>
    <trip id="354" depart="851.78" from="-31738979#7" to="-182518169#0"/>
    <trip id="355" depart="854.18" from="186145511#4" to="186155236#6"/>
    <trip id="356" depart="856.59" from="99839690#4" to="170316859#8"/>
    <trip id="357" depart="859.00" from="1110690343#4" to="-182516757#4"/>
    <trip id="358" depart="861.40" from="-182286386#6" to="-99839791#1"/>
    <trip id="359" depart="863.81" from="-98889237#1" to="-186390869"/>
    <trip id="360" depart="866.22" from="-182516769" to="99839764#3"/>
    <trip id="361" depart="868.62" from="864621430" to="182517353"/>
    <trip id="362" depart="871.03" from="99839723" to="99847641"/>
    <trip id="363" depart="873.43" from="182569280" to="-28350954#1"/>
    <trip id="364" depart="875.84" from="-182286386#7" to="294669642#1"/>
    <trip id="365" depart="878.25" from="1054761592" to="182567509"/>
    <trip id="366" depart="880.65" from="99839628#5" to="-182567523"/>
    <trip id="367" depart="883.06" from="182517363#1" to="182567485#2"/>
    <trip id="368" depart="885.46" from="1110492443" to="-182516774#3"/>
    <trip id="369" depart="887.87" from="-98897057#1" to="-98897042#1"/>
    <trip id="370" depart="890.28" from="182568148" to="98897022#3"/>
    <trip id="371" depart="892.68" from="-98897016#0" to="186155232#2"/>
    <trip id="372" depart="895.09" from="-31738979#6" to="99839716#0"/>
    <trip id="373" depart="897.50" from="688396682#0" to="182516750#0"/>
    <trip id="374" depart="899.90" from="-99839809#1" to="-98889237#0"/>
    <trip id="375" depart="902.31" from="-98889247#0" to="99839784"/>
    <trip id="376" depart="904.71" from="-99839664#3" to="182286386#5"/>
    <trip id="377" depart="907.12" from="99839809#0" to="182567520"/>
    <trip id="378" depart="909.53" from="182516724#1" to="-99839727"/>
    <trip id="379" depart="911.93" from="-182567528" to="-98897115#1"/>
    <trip id="380" depart="914.34" from="294669642#0" to="182567473#4"/>
    <trip id="381" depart="916.74" from="294669642#3" to="-186145511#1"/>
    <trip id="382" depart="919.15" from="182516737#1" to="99839658#0"/>
    <trip id="383" depart="921.56" from="-99839781#2" to="186155236#5"/>
    <trip id="384" depart="923.96" from="-182518165#0" to="99839792#0"/>
    <trip id="385" depart="926.37" from="182518171#0" to="-186378003"/>
    <trip id="386" depart="928.78" from="-182567477#1" to="182516750#1"/>
    <trip id="387" depart="931.18" from="182516743#0" to="-182516776#1"/>
    <trip id="388" depart="933.59" from="99839821#1" to="99839628#5"/>
    <trip id="389" depart="935.99" from="-99847603" to="-182518165#0"/>
    <trip id="390" depart="938.40" from="830281126#0" to="170316859#2"/>
    <trip id="391" depart="940.81" from="186185733#1" to="182263860#6"/>
    <trip id="392" depart="943.21" from="-190064678#0" to="88965376"/>
    <trip id="393" depart="945.62" from="99839798#2" to="-186378010#8"/>
    <trip id="394" depart="948.02" from="182516739#6" to="-99839632#0"/>
    <trip id="395" depart="950.43" from="99839631#7" to="182263860#3"/>
    <trip id="396" depart="952.84" from="98897068#4" to="98897047#0"/>
    <trip id="397" depart="955.24" from="-28350954#0" to="31738930#3"/>
    <trip id="398" depart="957.65" from="-99839716#0" to="99839664#3"/>
    <trip id="399" depart="960.06" from="170316859#4" to="688396692"/>
    <trip id="400" depart="962.46" from="-31738926#2" to="-830281124#0"/>
    <trip id="401" depart="964.87" from="182517364#2" to="99847614#0"/>
    <trip id="402" depart="967.27" from="1110047457#0" to="-182567473#4"/>
    <trip id="403" depart="969.68" from="182516715#4" to="-98897058"/>
    <trip id="404" depart="972.09" from="182516743#0" to="182516739#6"/>
    <trip id="405" depart="974.49" from="-99839817" to="-98897013"/>
    <trip id="406" depart="976.90" from="-182567529" to="186155236#3"/>
    <trip id="407" depart="979.30" from="182516767#0" to="-186185733#9"/>