<?xml version="1.0" encoding="UTF-8"?>

<!-- generated on 2024-06-09 16:47:41.941481 by randomTrips.py UNKNOWN
<configuration>
    <net-file value="config/osm.net.xml.gz"/>
    <route-file value="config/osm.passenger.trips.xml"/>
    <length value="True"/>
    <end value="10000.0"/>
    <insertion-density value="12.0"/>
</configuration>
-->

<routes xmlns:xsi="http://www.w3.org/2001/XMLSchema-instance" xsi:noNamespaceSchemaLocation="http://sumo.dlr.de/xsd/routes_file.xsd">
    <trip id="0" depart="0.00" from="489052143#2" to="-261333331#7"/>
    <trip id="1" depart="1.55" from="-835022326" to="-776125897"/>
    <trip id="2" depart="3.09" from="769255154" to="667975711#8"/>
    <trip id="3" depart="4.64" from="769809154" to="-261509046#1"/>
    <trip id="4" depart="6.18" from="261333067#1" to="-261333332#1"/>
    <trip id="5" depart="7.73" from="-769621313#2" to="261477099#1"/>
    <trip id="6" depart="9.27" from="-261333331#6" to="-769621312#1"/>
    <trip id="7" depart="10.82" from="489052153#4" to="429879192#6"/>
    <trip id="8" depart="12.37" from="-769621314#0" to="429879204#3"/>
    <trip id="9" depart="13.91" from="769604868#2" to="-261332658#3"/>
    <trip id="10" depart="15.46" from="769604867#3" to="667975722#1"/>
    <trip id="11" depart="17.00" from="115324518#10" to="-769267446"/>
    <trip id="12" depart="18.55" from="835170999#1" to="115324518#7"/>
    <trip id="13" depart="20.10" from="-261509046#1" to="-526938357#0"/>
    <trip id="14" depart="21.64" from="769619119#16" to="429879205#11"/>
    <trip id="15" depart="23.19" from="769604867#3" to="769255157#0"/>
    <trip id="16" depart="24.73" from="261509047#0" to="968814360#1"/>
    <trip id="17" depart="26.28" from="115324542#13" to="429879198#4"/>
    <trip id="18" depart="27.82" from="769617077#5" to="429879205#8"/>
    <trip id="19" depart="29.37" from="769619122#2" to="429879203#2"/>
    <trip id="20" depart="30.92" from="667975712#8" to="-261336449#1"/>
    <trip id="21" depart="32.46" from="-769622105" to="1012646750#1"/>
    <trip id="22" depart="34.01" from="-261503645#0" to="-779270676#0"/>
    <trip id="23" depart="35.55" from="-261509048#2" to="-835179365#1"/>
    <trip id="24" depart="37.10" from="489052143#12" to="115324542#13"/>
    <trip id="25" depart="38.64" from="115324537#5" to="-769622104#0"/>
    <trip id="26" depart="40.19" from="-835022302#1" to="835022302#1"/>
    <trip id="27" depart="41.74" from="489052153#3-AddedOnRampEdge" to="429879205#3"/>
    <trip id="28" depart="43.28" from="-769267451#2" to="769255156#1"/>
    <trip id="29" depart="44.83" from="-769267451#0" to="115324546#10"/>
    <trip id="30" depart="46.37" from="968814361#3" to="489052153#3-AddedOnRampEdge"/>
    <trip id="31" depart="47.92" from="429879198#4" to="667975712#1"/>
    <trip id="32" depart="49.47" from="769619119#11" to="769377811"/>
    <trip id="33" depart="51.01" from="-769622105" to="-261333332#3"/>
    <trip id="34" depart="52.56" from="1012646750#4-AddedOffRampEdge" to="-835166864"/>
    <trip id="35" depart="54.10" from="-769619118#2" to="835022325#1"/>
    <trip id="36" depart="55.65" from="769621313#2" to="1012646755#4"/>
    <trip id="37" depart="57.19" from="489052168" to="261332293#1-AddedOnRampEdge"/>
    <trip id="38" depart="58.74" from="777438940" to="261333334#10-AddedOnRampEdge"/>
    <trip id="39" depart="60.29" from="-835016386#1" to="-781496910#4"/>
    <trip id="40" depart="61.83" from="429879198#4" to="-835022326"/>
    <trip id="41" depart="63.38" from="429879203#2" to="769809156"/>
    <trip id="42" depart="64.92" from="115324546#6-AddedOnRampEdge" to="-776125894#3"/>
    <trip id="43" depart="66.47" from="968814361#8" to="261477099#2"/>
    <trip id="44" depart="68.01" from="-261509046#0" to="-261336449#2"/>
    <trip id="45" depart="69.56" from="-667975722#1" to="489052143#10"/>
    <trip id="46" depart="71.11" from="769552773" to="261333330#3"/>
    <trip id="47" depart="72.65" from="-261336450#8" to="115324546#10"/>
    <trip id="48" depart="74.20" from="968814361#6" to="261509047#2"/>
    <trip id="49" depart="75.74" from="968814360#1" to="769619119#7"/>
    <trip id="50" depart="77.29" from="-261333330#1" to="755584629#0"/>
    <trip id="51" depart="78.84" from="667975711#4" to="429879192#4"/>
    <trip id="52" depart="80.38" from="-835022302#1" to="489052153#4"/>
    <trip id="53" depart="81.93" from="-667975722#3" to="261333331#4"/>
    <trip id="54" depart="83.47" from="261333332#1" to="835170996#1"/>
    <trip id="55" depart="85.02" from="769621313#2" to="-835022326"/>
    <trip id="56" depart="86.56" from="261336450#4" to="-769551153#1"/>
    <trip id="57" depart="88.11" from="776125899" to="769621312#0"/>
    <trip id="58" depart="89.66" from="-888627577#1" to="489052143#9-AddedOnRampEdge"/>
    <trip id="59" depart="91.20" from="429879205#1" to="-769267445#0"/>
    <trip id="60" depart="92.75" from="769267447#1" to="429879192#4"/>
    <trip id="61" depart="94.29" from="769545374#2" to="261509048#0"/>
    <trip id="62" depart="95.84" from="-1012145670" to="115324518#1"/>
    <trip id="63" depart="97.38" from="-261333330#7" to="781496910#4"/>
    <trip id="64" depart="98.93" from="769621314#0" to="769617077#3"/>
    <trip id="65" depart="100.48" from="1012646750#11" to="-261336450#4"/>
    <trip id="66" depart="102.02" from="769621314#0" to="835022327"/>
    <trip id="67" depart="103.57" from="-261503647#1" to="261336450#3"/>
    <trip id="68" depart="105.11" from="-261336451#1" to="769267451#1"/>
    <trip id="69" depart="106.66" from="769267451#1" to="-755584628#7"/>
    <trip id="70" depart="108.21" from="261333334#13" to="429879198#4"/>
    <trip id="71" depart="109.75" from="-835016386#1" to="769621312#0"/>
    <trip id="72" depart="111.30" from="261333067#2" to="-769622105"/>
    <trip id="73" depart="112.84" from="261509048#0" to="769255157#0"/>
    <trip id="74" depart="114.39" from="-769551153#1" to="1012646755#2"/>
    <trip id="75" depart="115.93" from="968814361#6" to="526938357#0"/>
    <trip id="76" depart="117.48" from="261333330#6" to="261503647#1"/>
    <trip id="77" depart="119.03" from="-755584628#3" to="-776125898"/>
    <trip id="78" depart="120.57" from="115324518#10" to="429879204#3"/>
    <trip id="79" depart="122.12" from="-769804473#0" to="-776125894#4"/>
    <trip id="80" depart="123.66" from="-261336451#1" to="489052143#2"/>
    <trip id="81" depart="125.21" from="-769622105" to="776125894#0"/>
    <trip id="82" depart="126.75" from="769619122#1" to="-261336452#3"/>
    <trip id="83" depart="128.30" from="-776125894#2" to="667975711#11"/>
    <trip id="84" depart="129.85" from="-769621312#0" to="-769255155"/>
    <trip id="85" depart="131.39" from="835016386#1" to="429879202#4"/>
    <trip id="86" depart="132.94" from="261333334#11" to="769545374#2"/>
    <trip id="87" depart="134.48" from="769604867#3" to="-769619117"/>
    <trip id="88" depart="136.03" from="-261509047#2" to="261333331#3"/>
    <trip id="89" depart="137.58" from="261333067#2" to="261333334#5"/>
    <trip id="90" depart="139.12" from="755584628#6" to="667975711#4"/>
    <trip id="91" depart="140.67" from="968814360#6" to="-526938357#0"/>
    <trip id="92" depart="142.21" from="261332292#0" to="115324518#8"/>
    <trip id="93" depart="143.76" from="769619122#2" to="-781496912#1"/>
    <trip id="94" depart="145.30" from="-769545379" to="261333332#7"/>
    <trip id="95" depart="146.85" from="261333067#1" to="-888335527#0"/>
    <trip id="96" depart="148.40" from="-779270696" to="781496887#1"/>
    <trip id="97" depart="149.94" from="261333331#2" to="769619119#7"/>
    <trip id="98" depart="151.49" from="429879192#5" to="-261336449#4"/>
    <trip id="99" depart="153.03" from="968814361#9" to="769617077#6"/>
    <trip id="100" depart="154.58" from="888627579" to="781496910#3"/>
    <trip id="101" depart="156.12" from="769619119#17" to="-769377811"/>
    <trip id="102" depart="157.67" from="261336449#1" to="-769804473#0"/>
    <trip id="103" depart="159.22" from="115324546#8" to="-261336450#4"/>
    <trip id="104" depart="160.76" from="115324542#13" to="968814360#7-AddedOffRampEdge"/>
    <trip id="105" depart="162.31" from="-835016386#1" to="769545374#2"/>
    <trip id="106" depart="163.85" from="261333332#1" to="261333330#5"/>
    <trip id="107" depart="165.40" from="835170999#1" to="968814361#6"/>
    <trip id="108" depart="166.95" from="429879198#1" to="755584628#7"/>
    <trip id="109" depart="168.49" from="-769267445#0" to="1012646750#11"/>
    <trip id="110" depart="170.04" from="888627578#1" to="429879203#3"/>
    <trip id="111" depart="171.58" from="429879192#0" to="769267446"/>
    <trip id="112" depart="173.13" from="-261336450#1" to="429879204#1"/>
    <trip id="113" depart="174.67" from="261336450#8" to="769619119#17"/>
    <trip id="114" depart="176.22" from="-769267445#2" to="888335527#0"/>
    <trip id="115" depart="177.77" from="-261503645#0" to="-769552774"/>
    <trip id="116" depart="179.31" from="429879204#3" to="667975711#4-AddedOffRampEdge"/>
    <trip id="117" depart="180.86" from="-775708493" to="-755584628#4"/>
    <trip id="118" depart="182.40" from="769809150" to="-781496910#4"/>
    <trip id="119" depart="183.95" from="429879204#3" to="429879205#8"/>
    <trip id="120" depart="185.49" from="261332658#0" to="429879204#1"/>
    <trip id="121" depart="187.04" from="261503645#0" to="835016386#1"/>
    <trip id="122" depart="188.59" from="-769619117" to="755584628#7"/>
    <trip id="123" depart="190.13" from="-776125894#2" to="261332293#1-AddedOnRampEdge"/>
    <trip id="124" depart="191.68" from="667975711#1" to="1012646750#3"/>
    <trip id="125" depart="193.22" from="1012646750#7" to="769267448"/>
    <trip id="126" depart="194.77" from="-261336452#0" to="261333334#10"/>
    <trip id="127" depart="196.32" from="968814361#8" to="968814361#6"/>
    <trip id="128" depart="197.86" from="-261336452#1" to="-769622105"/>
    <trip id="129" depart="199.41" from="-835016386#1" to="835016386#0"/>
    <trip id="130" depart="200.95" from="769622104#0" to="769621314#0"/>
    <trip id="131" depart="202.50" from="115324537#5" to="-769267451#0"/>
    <trip id="132" depart="204.04" from="769617077#7" to="667975722#3"/>
    <trip id="133" depart="205.59" from="429879205#11" to="968814361#2"/>
    <trip id="134" depart="207.14" from="489052153#7" to="-261333330#1"/>
    <trip id="135" depart="208.68" from="769604872#3" to="1012646750#2"/>
    <trip id="136" depart="210.23" from="527003140#2" to="835022324#0"/>
    <trip id="137" depart="211.77" from="-769255155" to="-755584628#2"/>
    <trip id="138" depart="213.32" from="-526938357#2" to="429879198#4"/>
    <trip id="139" depart="214.86" from="-835022324#2" to="429879205#11"/>
    <trip id="140" depart="216.41" from="755584628#0" to="-769621313#1"/>
    <trip id="141" depart="217.96" from="489052143#10" to="-835022327"/>
    <trip id="142" depart="219.50" from="261336449#1" to="776125894#0"/>
    <trip id="143" depart="221.05" from="769619119#14" to="-261509048#0"/>
    <trip id="144" depart="222.59" from="261333067#2" to="-835179365#1"/>
    <trip id="145" depart="224.14" from="-261332292#0" to="769267451#3"/>
    <trip id="146" depart="225.69" from="489052143#12" to="-835022326"/>
    <trip id="147" depart="227.23" from="769255156#0" to="429879198#4"/>
    <trip id="148" depart="228.78" from="261333233#2" to="-261333330#2"/>
    <trip id="149" depart="230.32" from="-261336452#2" to="769621315#1"/>
    <trip id="150" depart="231.87" from="776125896" to="429879198#1"/>
    <trip id="151" depart="233.41" from="769619117" to="429879204#1"/>
    <trip id="152" depart="234.96" from="-769267442" to="-755584628#7"/>
    <trip id="153" depart="236.51" from="1012646750#11" to="769809160"/>
    <trip id="154" depart="238.05" from="769604866#1" to="769619119#7"/>
    <trip id="155" depart="239.60" from="776125894#0" to="-769622105"/>
    <trip id="156" depart="241.14" from="-779270696" to="-667975722#1"/>
    <trip id="157" depart="242.69" from="769545374#4" to="769622104#0"/>
    <trip id="158" depart="244.23" from="261332292#1" to="429879205#8"/>
    <trip id="159" depart="245.78" from="-769267445#0" to="781496912#1"/>
    <trip id="160" depart="247.33" from="769619122#5-AddedOffRampEdge" to="968814360#3"/>
    <trip id="161" depart="248.87" from="769604868#2" to="769621315#1"/>
    <trip id="162" depart="250.42" from="-261333331#4" to="769267442"/>
    <trip id="163" depart="251.96" from="1012646755#4" to="781496913"/>
    <trip id="164" depart="253.51" from="769604867#1" to="769619122#1"/>
    <trip id="165" depart="255.06" from="769604868#2" to="-835022327"/>
    <trip id="166" depart="256.60" from="769549193#0" to="-755584628#0"/>
    <trip id="167" depart="258.15" from="769621313#0" to="769619119#7"/>
    <trip id="168" depart="259.69" from="-769621315#1" to="769604872#1"/>
    <trip id="169" depart="261.24" from="261333332#7" to="1012646750#8"/>
    <trip id="170" depart="262.78" from="769552774" to="-776125899"/>
    <trip id="171" depart="264.33" from="-261333331#3" to="-769619118#1"/>
    <trip id="172" depart="265.88" from="1012646755#4" to="769619122#1"/>
    <trip id="173" depart="267.42" from="888627577#0" to="-888335527#1"/>
    <trip id="174" depart="268.97" from="489052143#4" to="261332293#2"/>
    <trip id="175" depart="270.51" from="968814360#4" to="429879192#3-AddedOnRampEdge"/>
    <trip id="176" depart="272.06" from="835022324#1" to="-755584628#2"/>
    <trip id="177" depart="273.61" from="888627579" to="-769551153#1"/>
    <trip id="178" depart="275.15" from="888335527#1" to="-835022327"/>
    <trip id="179" depart="276.70" from="-667975722#0" to="261333331#4"/>
    <trip id="180" depart="278.24" from="755584628#6" to="1012646755#2"/>
    <trip id="181" depart="279.79" from="429879204#7" to="261503645#0"/>
    <trip id="182" depart="281.33" from="115324542#2" to="429879203#2"/>
    <trip id="183" depart="282.88" from="-781496887#1" to="755584628#2"/>
    <trip id="184" depart="284.43" from="-258769592#1" to="781496910#2"/>
    <trip id="185" depart="285.97" from="261509047#2" to="755584628#7"/>
    <trip id="186" depart="287.52" from="769255156#0" to="667975711#2"/>
    <trip id="187" depart="289.06" from="115324537#2" to="-261336452#3"/>
    <trip id="188" depart="290.61" from="527003140#2" to="115324518#4"/>
    <trip id="189" depart="292.15" from="1012646750#4" to="769619119#12"/>
    <trip id="190" depart="293.70" from="755584628#2" to="1012646750#3"/>
    <trip id="191" depart="295.25" from="1012646750#11" to="261332658#3"/>
    <trip id="192" depart="296.79" from="261332292#0" to="1012646750#11"/>
    <trip id="193" depart="298.34" from="-755584628#7" to="261333330#2"/>
    <trip id="194" depart="299.88" from="835022324#1" to="667975711#8"/>
    <trip id="195" depart="301.43" from="776125895" to="429879205#5"/>
    <trip id="196" depart="302.98" from="-888627579" to="429879198#1"/>
    <trip id="197" depart="304.52" from="-1012145670" to="-888627579"/>
    <trip id="198" depart="306.07" from="261333329#3" to="429879204#1"/>
    <trip id="199" depart="307.61" from="489052153#7-AddedOffRampEdge" to="261333334#3"/>
    <trip id="200" depart="309.16" from="261333331#2" to="-769804473#0"/>
    <trip id="201" depart="310.70" from="261333334#12" to="769809168"/>
    <trip id="202" depart="312.25" from="769552774" to="-769545374#2"/>
    <trip id="203" depart="313.80" from="-261503647#1" to="261503647#0"/>
    <trip id="204" depart="315.34" from="489052143#1" to="115324518#7"/>
    <trip id="205" depart="316.89" from="769604872#3" to="769267447#1"/>
    <trip id="206" depart="318.43" from="667975711#1" to="-776125898"/>
    <trip id="207" depart="319.98" from="-769551153#1" to="-261333331#6"/>
    <trip id="208" depart="321.52" from="-776125898" to="261336449#1"/>
    <trip id="209" depart="323.07" from="769619119#18" to="-261500873"/>
    <trip id="210" depart="324.62" from="261332293#7" to="489052143#2"/>
    <trip id="211" depart="326.16" from="-769549183" to="667975712#8"/>
    <trip id="212" depart="327.71" from="261336450#0" to="-781496910#3"/>
    <trip id="213" depart="329.25" from="489052168" to="-261332658#1"/>
    <trip id="214" depart="330.80" from="769267442" to="769267451#3"/>
    <trip id="215" depart="332.35" from="-526938357#2" to="261333330#6"/>
    <trip id="216" depart="333.89" from="-769545374#2" to="835171009"/>
    <trip id="217" depart="335.44" from="261477099#2" to="-261336449#4"/>
    <trip id="218" depart="336.98" from="-779270679" to="769619119#12"/>
    <trip id="219" depart="338.53" from="261333332#4" to="769604866#1"/>
    <trip id="220" depart="340.07" from="527003140#3" to="968814361#2"/>
    <trip id="221" depart="341.62" from="429879204#3" to="835022327"/>
    <trip id="222" depart="343.17" from="769809153" to="429879205#4"/>
    <trip id="223" depart="344.71" from="755584628#2" to="261477099#1"/>
    <trip id="224" depart="346.26" from="769617077#6" to="429879198#1"/>
    <trip id="225" depart="347.80" from="775708493" to="769267444"/>
    <trip id="226" depart="349.35" from="261333334#13" to="-835022325#0"/>
    <trip id="227" depart="350.89" from="-777438940" to="489052143#9"/>
    <trip id="228" depart="352.44" from="769267451#1" to="261505973"/>
    <trip id="229" depart="353.99" from="429879205#8" to="-835170999#1"/>
    <trip id="230" depart="355.53" from="-261336452#4" to="-888627578#1"/>
    <trip id="231" depart="357.08" from="-835022324#1" to="1012646755#4"/>
    <trip id="232" depart="358.62" from="261509048#1" to="-769255156#1"/>
    <trip id="233" depart="360.17" from="-769804473#1" to="667975712#8"/>
    <trip id="234" depart="361.72" from="667975722#1" to="-261336450#8"/>
    <trip id="235" depart="363.26" from="261332293#1" to="429879192#5"/>
    <trip id="236" depart="364.81" from="261332293#7" to="-769621314#1"/>
    <trip id="237" depart="366.35" from="261332658#1" to="775708493"/>
    <trip id="238" depart="367.90" from="429879203#2" to="667975712#8"/>
    <trip id="239" depart="369.44" from="769619119#7" to="769267451#3"/>
    <trip id="240" depart="370.99" from="115324542#14" to="-261332658#3"/>
    <trip id="241" depart="372.54" from="115324518#8" to="769267449#1"/>
    <trip id="242" depart="374.08" from="769619119#7" to="835170994"/>
    <trip id="243" depart="375.63" from="261332658#0" to="769267445#2"/>
    <trip id="244" depart="377.17" from="429879192#4" to="429879205#11"/>
    <trip id="245" depart="378.72" from="-769621314#0" to="-776125894#3"/>
    <trip id="246" depart="380.26" from="261333330#5" to="-261333332#0"/>
    <trip id="247" depart="381.81" from="1012646755#6" to="667975712#1"/>
    <trip id="248" depart="383.36" from="261332292#1" to="-769267451#2"/>
    <trip id="249" depart="384.90" from="261333334#1" to="-755584628#7"/>
    <trip id="250" depart="386.45" from="429879205#4" to="-261333331#9"/>
    <trip id="251" depart="387.99" from="115324546#10" to="429879198#9"/>
    <trip id="252" depart="389.54" from="-261333331#7" to="489052153#5"/>
    <trip id="253" depart="391.09" from="-769255155" to="261333334#13"/>
    <trip id="254" depart="392.63" from="-261336449#2" to="115324546#10"/>
    <trip id="255" depart="394.18" from="-769621312#0" to="115324518#10"/>
    <trip id="256" depart="395.72" from="769267447#1" to="115324546#10"/>
    <trip id="257" depart="397.27" from="769267442" to="769617077#3"/>
    <trip id="258" depart="398.81" from="-781496887#1" to="-261503647#1"/>
    <trip id="259" depart="400.36" from="-261333330#7" to="429879192#4"/>
    <trip id="260" depart="401.91" from="968814361#9" to="115324521#5-AddedOffRampEdge"/>
    <trip id="261" depart="403.45" from="489052153#4" to="769545374#1"/>
    <trip id="262" depart="405.00" from="489052153#6" to="769267451#0"/>
    <trip id="263" depart="406.54" from="835022327" to="-769621312#1"/>
    <trip id="264" depart="408.09" from="-261333331#2" to="-769267445#0"/>
    <trip id="265" depart="409.63" from="-755584628#7" to="667975711#2"/>
    <trip id="266" depart="411.18" from="429879198#6" to="-776125894#1"/>
    <trip id="267" depart="412.73" from="667975712#7" to="769267451#3"/>
    <trip id="268" depart="414.27" from="-769267451#1" to="429879205#11"/>
    <trip id="269" depart="415.82" from="769267442" to="-755584628#2"/>
    <trip id="270" depart="417.36" from="769617077#1" to="888335528#1"/>
    <trip id="271" depart="418.91" from="-667975722#0" to="-261333331#7"/>
    <trip id="272" depart="420.46" from="1012646750#2" to="667975711#8"/>
    <trip id="273" depart="422.00" from="835171010" to="261332293#11"/>
    <trip id="274" depart="423.55" from="755584628#0" to="-261503645#1"/>
    <trip id="275" depart="425.09" from="667975712#1" to="489052143#10"/>
    <trip id="276" depart="426.64" from="-261509049#1" to="769267451#3"/>
    <trip id="277" depart="428.18" from="769619119#3" to="429879204#9-AddedOffRampEdge"/>
    <trip id="278" depart="429.73" from="-755584628#3" to="968814360#6"/>
    <trip id="279" depart="431.28" from="769545374#4" to="115324521#4"/>
    <trip id="280" depart="432.82" from="261333233#2" to="115324542#2"/>
    <trip id="281" depart="434.37" from="261336450#8" to="115324521#1"/>
    <trip id="282" depart="435.91" from="769619119#18" to="769604872#3"/>
    <trip id="283" depart="437.46" from="-526938357#0" to="888335527#0"/>
    <trip id="284" depart="439.00" from="489052143#11" to="769617077#3"/>
    <trip id="285" depart="440.55" from="667975722#1" to="261333331#6"/>
    <trip id="286" depart="442.10" from="755584628#7" to="888335528#1"/>
    <trip id="287" depart="443.64" from="-835022324#0" to="769604867#3"/>
    <trip id="288" depart="445.19" from="261509047#2" to="261336450#1"/>
    <trip id="289" depart="446.73" from="261333330#5" to="769255157#0"/>
    <trip id="290" depart="448.28" from="-835022322" to="769619119#16"/>
    <trip id="291" depart="449.83" from="769617077#6" to="-261509046#1"/>
    <trip id="292" depart="451.37" from="769622104#0" to="-781496910#3"/>
    <trip id="293" depart="452.92" from="261333332#8" to="429879205#3"/>
    <trip id="294" depart="454.46" from="115324542#13" to="-261333331#9"/>
    <trip id="295" depart="456.01" from="769619119#3" to="-769552773"/>
    <trip id="296" depart="457.55" from="-769621312#0" to="769552770"/>
    <trip id="297" depart="459.10" from="115324518#10" to="769621314#1"/>
    <trip id="298" depart="460.65" from="667975712#8" to="-835171010"/>
    <trip id="299" depart="462.19" from="-261333330#1" to="835022327"/>
    <trip id="300" depart="463.74" from="-261503647#1" to="755584628#7"/>
    <trip id="301" depart="465.28" from="261336449#1" to="769267451#1"/>
    <trip id="302" depart="466.83" from="667975712#1" to="489052153#7"/>
    <trip id="303" depart="468.37" from="261336449#3" to="769549189#1"/>
    <trip id="304" depart="469.92" from="-261509046#2" to="-776125895"/>
    <trip id="305" depart="471.47" from="667975712#1" to="1012646750#8"/>
    <trip id="306" depart="473.01" from="429879203#1" to="261336449#1"/>
    <trip id="307" depart="474.56" from="261505973" to="261333330#6"/>
    <trip id="308" depart="476.10" from="769255157#0" to="115324518#4"/>
    <trip id="309" depart="477.65" from="667975712#8" to="-835170997"/>
    <trip id="310" depart="479.20" from="-781496887#1" to="-755584628#5"/>
    <trip id="311" depart="480.74" from="-769545379" to="-755584628#3"/>
    <trip id="312" depart="482.29" from="261509047#0" to="769267451#2"/>
    <trip id="313" depart="483.83" from="-769545379" to="-775708493"/>
    <trip id="314" depart="485.38" from="261336449#1" to="769255155"/>
    <trip id="315" depart="486.92" from="968814360#3" to="261509046#1"/>
    <trip id="316" depart="488.47" from="-835170994" to="-526938357#2"/>
    <trip id="317" depart="490.02" from="-769549183" to="-776125899"/>
    <trip id="318" depart="491.56" from="-769545374#4" to="-261333330#6"/>
    <trip id="319" depart="493.11" from="261509046#1" to="-835170999#1"/>
    <trip id="320" depart="494.65" from="968814360#11" to="429879198#4"/>
    <trip id="321" depart="496.20" from="667975712#3" to="-755584628#7"/>
    <trip id="322" depart="497.74" from="769621312#0" to="261336450#8"/>
    <trip id="323" depart="499.29" from="769621313#0" to="429879203#1"/>
    <trip id="324" depart="500.84" from="261333334#1" to="261333332#1"/>
    <trip id="325" depart="502.38" from="-769545379" to="-261336450#0"/>
    <trip id="326" depart="503.93" from="835022324#2" to="261336449#3"/>
    <trip id="327" depart="505.47" from="769617077#1" to="261332293#7"/>
    <trip id="328" depart="507.02" from="-261336452#1" to="489052143#12"/>
    <trip id="329" depart="508.57" from="-261336450#0" to="-769267443"/>
    <trip id="330" depart="510.11" from="429879198#6" to="1012646750#8"/>
    <trip id="331" depart="511.66" from="968814361#6" to="-755584628#2"/>
    <trip id="332" depart="513.20" from="769267451#1" to="429879205#11"/>
    <trip id="333" depart="514.75" from="769551153#1" to="-776125898"/>
    <trip id="334" depart="516.29" from="261503645#0" to="261333332#8"/>
    <trip id="335" depart="517.84" from="261333331#2" to="769619119#7"/>
    <trip id="336" depart="519.39" from="968814361#5" to="1012646750#8"/>
    <trip id="337" depart="520.93" from="429879205#4" to="429879205#3"/>
    <trip id="338" depart="522.48" from="769255155" to="835022327"/>
    <trip id="339" depart="524.02" from="-769619117" to="-769622105"/>
    <trip id="340" depart="525.57" from="526938357#1" to="-769267449#1"/>
    <trip id="341" depart="527.11" from="-769545374#1" to="-261503645#0"/>
    <trip id="342" depart="528.66" from="-261332292#0" to="261333332#8"/>
    <trip id="343" depart="530.21" from="429879204#10" to="1012646750#1"/>
    <trip id="344" depart="531.75" from="-769804473#1" to="755584628#2"/>
    <trip id="345" depart="533.30" from="667975712#8" to="261333334#1"/>
    <trip id="346" depart="534.84" from="667975712#1" to="781496887#1"/>
    <trip id="347" depart="536.39" from="769551153#1" to="489052143#1"/>
    <trip id="348" depart="537.94" from="526938357#2" to="835016386#0"/>
    <trip id="349" depart="539.48" from="261333233#0" to="429879192#6"/>
    <trip id="350" depart="541.03" from="489052153#3" to="776125894#3"/>
    <trip id="351" depart="542.57" from="769617077#3" to="-261336452#4"/>
    <trip id="352" depart="544.12" from="-769267451#1" to="1012646750#8-AddedOnRampEdge"/>
    <trip id="353" depart="545.66" from="769267442" to="429879202#3"/>
    <trip id="354" depart="547.21" from="-835171009" to="-755584628#7"/>
    <trip id="355" depart="548.76" from="667975712#1" to="667975722#1"/>
    <trip id="356" depart="550.30" from="835022325#1" to="261336452#1"/>
    <trip id="357" depart="551.85" from="261336450#0" to="-261503647#1"/>
    <trip id="358" depart="553.39" from="-261333332#7" to="261333331#3"/>
    <trip id="359" depart="554.94" from="1012646755#1" to="-781496913"/>
    <trip id="360" depart="556.48" from="-261509046#0" to="888335527#1"/>
    <trip id="361" depart="558.03" from="769619117" to="429879203#1"/>
    <trip id="362" depart="559.58" from="835166864" to="968814361#9"/>
    <trip id="363" depart="561.12" from="667975711#1" to="-835170996#0"/>
    <trip id="364" depart="562.67" from="-261333332#7" to="769267451#1"/>
    <trip id="365" depart="564.21" from="261333334#10" to="526938357#0"/>
    <trip id="366" depart="565.76" from="779270695#0" to="-769552773"/>
    <trip id="367" depart="567.31" from="429879203#2" to="489052143#5"/>
    <trip id="368" depart="568.85" from="261336449#4" to="-261509047#2"/>
    <trip id="369" depart="570.40" from="115324518#7" to="115324518#4"/>
    <trip id="370" depart="571.94" from="667975711#1" to="769619119#7"/>
    <trip id="371" depart="573.49" from="1012646755#4" to="667975712#8"/>
    <trip id="372" depart="575.03" from="-835170999#1.86" to="835022326"/>
    <trip id="373" depart="576.58" from="769604872#1" to="429879198#4"/>
    <trip id="374" depart="578.13" from="261333332#1" to="1012646755#2"/>
    <trip id="375" depart="579.67" from="1012646755#1" to="888627579"/>
    <trip id="376" depart="581.22" from="261332292#1" to="261503645#1"/>
    <trip id="377" depart="582.76" from="968814361#2" to="527003140#2"/>
    <trip id="378" depart="584.31" from="429879192#2" to="261333233#0"/>
    <trip id="379" depart="585.85" from="-769545379" to="115324542#11"/>
    <trip id="380" depart="587.40" from="769267444" to="489052143#1"/>
    <trip id="381" depart="588.95" from="769267446" to="-769621313#1"/>
    <trip id="382" depart="590.49" from="429879192#4" to="781496910#4"/>
    <trip id="383" depart="592.04" from="261333330#6" to="667975722#1"/>
    <trip id="384" depart="593.58" from="-755584628#4" to="968814360#1"/>
    <trip id="385" depart="595.13" from="429879205#1" to="-781496887#1"/>
    <trip id="386" depart="596.68" from="-769267446" to="429879198#4"/>
    <trip id="387" depart="598.22" from="429879192#6" to="-261509048#1"/>
    <trip id="388" depart="599.77" from="968814361#5" to="776125898"/>
    <trip id="389" depart="601.31" from="261333332#7" to="-755584628#2"/>
    <trip id="390" depart="602.86" from="769617077#6" to="261336452#0"/>
    <trip id="391" depart="604.40" from="755584628#0" to="261477099#2"/>
    <trip id="392" depart="605.95" from="-835022325#1" to="769617077#6"/>
    <trip id="393" depart="607.50" from="968814360#4" to="-781496910#3"/>
    <trip id="394" depart="609.04" from="429879192#5" to="115324546#4"/>
    <trip id="395" depart="610.59" from="781496887#1" to="261477099#2"/>
    <trip id="396" depart="612.13" from="769621315#0" to="769619122#1"/>
    <trip id="397" depart="613.68" from="-835022326" to="769549189#1"/>
    <trip id="398" depart="615.22" from="261332293#7" to="835016386#1"/>
    <trip id="399" depart="616.77" from="261336452#0" to="769604872#3"/>
    <trip id="400" depart="618.32" from="-835170994" to="1012646750#11"/>