<?xml version="1.0" encoding="UTF-8"?>

<!-- generated on 2024-06-14 22:48:25.570114 by randomTrips.py UNKNOWN
<configuration>
    <net-file value="config/osm.net.xml.gz"/>
    <route-file value="config/osm.passenger.trips.xml"/>
    <length value="True"/>
    <end value="10000.0"/>
    <insertion-density value="12.0"/>
</configuration>
-->

<routes xmlns:xsi="http://www.w3.org/2001/XMLSchema-instance" xsi:noNamespaceSchemaLocation="http://sumo.dlr.de/xsd/routes_file.xsd">
    <trip id="0" depart="0.00" from="4018920" to="-187007954#1"/>
    <trip id="1" depart="5.45" from="-4268886" to="-4196547#1"/>
    <trip id="2" depart="10.91" from="4211547#1" to="4073077"/>
    <trip id="3" depart="16.36" from="4936351" to="-287520731"/>
    <trip id="4" depart="21.81" from="-694954584" to="-205316126"/>
    <trip id="5" depart="27.27" from="-4196474#1" to="208356734"/>
    <trip id="6" depart="32.72" from="-187007954#1" to="-4189859#2"/>
    <trip id="7" depart="38.17" from="4018945#0" to="236680742"/>
    <trip id="8" depart="43.63" from="-4196474#2" to="361255883"/>
    <trip id="9" depart="49.08" from="4277778#3" to="-1222725745"/>
    <trip id="10" depart="54.53" from="4277778#1" to="4189862"/>
    <trip id="11" depart="59.99" from="-43320004" to="-396922880#1"/>
    <trip id="12" depart="65.44" from="61333932#7" to="-4288424#0"/>
    <trip id="13" depart="70.89" from="-3017274" to="-318100413#0"/>
    <trip id="14" depart="76.35" from="4287690" to="365599112#0"/>
    <trip id="15" depart="81.80" from="4277778#2" to="4211543"/>
    <trip id="16" depart="87.25" from="23186963#1" to="708133847#0"/>
    <trip id="17" depart="92.71" from="-4996692" to="253261928"/>
    <trip id="18" depart="98.16" from="4287678#2" to="3849560#0"/>
    <trip id="19" depart="103.62" from="4391619#1" to="333611894#0"/>
    <trip id="20" depart="109.07" from="41964680" to="-227758448"/>
    <trip id="21" depart="114.52" from="-4211543" to="-4277778#2"/>
    <trip id="22" depart="119.98" from="-263939617" to="-4211547#0"/>
    <trip id="23" depart="125.43" from="-326819232" to="-4268890#0"/>
    <trip id="24" depart="130.88" from="4018917" to="-4871754#4"/>
    <trip id="25" depart="136.34" from="-4936352" to="-4196471"/>
    <trip id="26" depart="141.79" from="-4267153" to="5197319"/>
    <trip id="27" depart="147.24" from="4018943#1" to="368003202"/>
    <trip id="28" depart="152.70" from="-4049619#0" to="4211543"/>
    <trip id="29" depart="158.15" from="-403951938#0" to="-5001383#3"/>
    <trip id="30" depart="163.60" from="906641986#1" to="4018923#0"/>
    <trip id="31" depart="169.06" from="26272023" to="40893861#0"/>
    <trip id="32" depart="174.51" from="4287689" to="4262035"/>
    <trip id="33" depart="179.96" from="-4211543" to="-224125601"/>
    <trip id="34" depart="185.42" from="-4287683#2" to="-4267173"/>
    <trip id="35" depart="190.87" from="-4196471" to="574218753#11"/>
    <trip id="36" depart="196.32" from="481277903" to="-4287684"/>
    <trip id="37" depart="201.78" from="4048467" to="-5197316"/>
    <trip id="38" depart="207.23" from="5036921#0" to="1202586595#0"/>
    <trip id="39" depart="212.68" from="-4262034" to="-4246872#3"/>
    <trip id="40" depart="218.14" from="276566046" to="-4262033"/>
    <trip id="41" depart="223.59" from="346948672#0" to="4936976#2"/>
    <trip id="42" depart="229.04" from="-54489542" to="-4196474#1"/>
    <trip id="43" depart="234.50" from="970453667#0" to="214779355"/>
    <trip id="44" depart="239.95" from="-287522412" to="-227758448"/>
    <trip id="45" depart="245.40" from="-346948677" to="396922880#0"/>
    <trip id="46" depart="250.86" from="4268889" to="-694954584"/>
    <trip id="47" depart="256.31" from="-23268778" to="-5001383#5"/>
    <trip id="48" depart="261.76" from="970453667#0" to="23186963#0"/>
    <trip id="49" depart="267.22" from="708133847#0" to="4391619#0"/>
    <trip id="50" depart="272.67" from="-157692676" to="4196547#1"/>
    <trip id="51" depart="278.12" from="4073118" to="23268804"/>
    <trip id="52" depart="283.58" from="-4267153" to="4018923#0"/>
    <trip id="53" depart="289.03" from="-358539533" to="-906641986#0"/>
    <trip id="54" depart="294.48" from="1104605978" to="61333932#4"/>
    <trip id="55" depart="299.94" from="4806901" to="-4262034"/>
    <trip id="56" depart="305.39" from="177845942" to="-4073063#2"/>
    <trip id="57" depart="310.85" from="5001383#2" to="4755832"/>
    <trip id="58" depart="316.30" from="-4277780#1" to="4018923#0"/>
    <trip id="59" depart="321.75" from="368003200" to="-396922879"/>
    <trip id="60" depart="327.21" from="4252292" to="23268933#1"/>
    <trip id="61" depart="332.66" from="4266043" to="23186963#1"/>
    <trip id="62" depart="338.11" from="-106751765#0" to="-4287690"/>
    <trip id="63" depart="343.57" from="-182697107" to="5155576#0"/>
    <trip id="64" depart="349.02" from="4829401" to="4287678#4"/>
    <trip id="65" depart="354.47" from="-4277783" to="-23268778"/>
    <trip id="66" depart="359.93" from="4827983" to="574218753#6"/>
    <trip id="67" depart="365.38" from="-276992921#1" to="157692679#0"/>
    <trip id="68" depart="370.83" from="-23268961#1" to="4252291"/>
    <trip id="69" depart="376.29" from="4262029" to="-362445600#2"/>
    <trip id="70" depart="381.74" from="132029167#0" to="242737762#0"/>
    <trip id="71" depart="387.19" from="-4262034" to="477731931"/>
    <trip id="72" depart="392.65" from="-694954584" to="-4196472"/>
    <trip id="73" depart="398.10" from="23268804" to="4211543"/>
    <trip id="74" depart="403.55" from="-4189862" to="-4287678#2"/>
    <trip id="75" depart="409.01" from="970453666#0" to="4048467"/>
    <trip id="76" depart="414.46" from="-906641986#1" to="227604413"/>
    <trip id="77" depart="419.91" from="-361257610#0" to="-4211277#1"/>
    <trip id="78" depart="425.37" from="-4288424#0" to="359880933"/>
    <trip id="79" depart="430.82" from="-4211544#0" to="-4196474#2"/>
    <trip id="80" depart="436.27" from="-23901141" to="4018917"/>
    <trip id="81" depart="441.73" from="-4211543" to="4958799"/>
    <trip id="82" depart="447.18" from="4391619#0" to="-23901141"/>
    <trip id="83" depart="452.63" from="-4211581#1" to="4073065"/>
    <trip id="84" depart="458.09" from="-4196472" to="-365599112#0"/>
    <trip id="85" depart="463.54" from="5197319" to="30955698"/>
    <trip id="86" depart="468.99" from="132029167#0" to="4267173"/>
    <trip id="87" depart="474.45" from="4277778#2" to="-40893861#2"/>
    <trip id="88" depart="479.90" from="-30955698" to="-7724604"/>
    <trip id="89" depart="485.35" from="-694954584" to="130995873"/>
    <trip id="90" depart="490.81" from="4211277#2" to="4073067"/>
    <trip id="91" depart="496.26" from="904404508" to="-318100414#1"/>
    <trip id="92" depart="501.71" from="-574218753#7" to="-4391619#0"/>
    <trip id="93" depart="507.17" from="4391619#1" to="-4247019"/>
    <trip id="94" depart="512.62" from="-40893861#2" to="106751765#0"/>
    <trip id="95" depart="518.08" from="-694954584" to="-4268890#1"/>
    <trip id="96" depart="523.53" from="-4247019" to="51301314"/>
    <trip id="97" depart="528.98" from="-9234350#2" to="4391619#1"/>
    <trip id="98" depart="534.44" from="24062643" to="-231147556"/>
    <trip id="99" depart="539.89" from="975294056" to="4287683#2"/>
    <trip id="100" depart="545.34" from="704090237#0" to="5144708#0"/>
    <trip id="101" depart="550.80" from="4287771" to="-4048467"/>
    <trip id="102" depart="556.25" from="157692676" to="-4196472"/>
    <trip id="103" depart="561.70" from="-574218753#10" to="-23268778"/>
    <trip id="104" depart="567.16" from="-4996692" to="904404508"/>
    <trip id="105" depart="572.61" from="-4262034" to="4267173"/>
    <trip id="106" depart="578.06" from="1104605978" to="-708133847#1"/>
    <trip id="107" depart="583.52" from="61333932#7" to="970453666#0"/>
    <trip id="108" depart="588.97" from="253261928" to="4196474#2"/>
    <trip id="109" depart="594.42" from="-396922880#0" to="-4277780#1"/>
    <trip id="110" depart="599.88" from="704090237#0" to="333611894#0"/>
    <trip id="111" depart="605.33" from="23268933#1" to="4246872#0"/>
    <trip id="112" depart="610.78" from="-23268778" to="358539533.94"/>
    <trip id="113" depart="616.24" from="187007954#0" to="4288423"/>
    <trip id="114" depart="621.69" from="-397147638" to="6176945"/>
    <trip id="115" depart="627.14" from="-263939617" to="-4073124"/>
    <trip id="116" depart="632.60" from="361257442#0" to="4073077"/>
    <trip id="117" depart="638.05" from="-4211547#1" to="-361257442#1"/>
    <trip id="118" depart="643.50" from="4871754#4" to="-4246872#3"/>
    <trip id="119" depart="648.96" from="361257442#0" to="3849560#0"/>
    <trip id="120" depart="654.41" from="-61883421" to="358539533"/>
    <trip id="121" depart="659.86" from="227604414#5" to="5197319"/>
    <trip id="122" depart="665.32" from="-4196468" to="4196474#1"/>
    <trip id="123" depart="670.77" from="-4211581#2" to="-5197316"/>
    <trip id="124" depart="676.22" from="4073065" to="-4277781#1"/>
    <trip id="125" depart="681.68" from="-4287684" to="4246876"/>
    <trip id="126" depart="687.13" from="-24062643" to="1167320823"/>
    <trip id="127" depart="692.58" from="975294056" to="970453667#0"/>
    <trip id="128" depart="698.04" from="-24062643" to="-4196472"/>
    <trip id="129" depart="703.49" from="-4262034" to="5197319"/>
    <trip id="130" depart="708.94" from="4829401" to="4827983"/>
    <trip id="131" depart="714.40" from="-4936352" to="-4018918"/>
    <trip id="132" depart="719.85" from="4287682" to="41964680"/>
    <trip id="133" depart="725.31" from="368003202" to="906641986#1"/>
    <trip id="134" depart="730.76" from="4048467" to="-123564625#0"/>
    <trip id="135" depart="736.21" from="4277781#0" to="-4277781#1"/>
    <trip id="136" depart="741.67" from="4073063#0" to="54487560#0"/>
    <trip id="137" depart="747.12" from="-365599112#0" to="-358972239"/>
    <trip id="138" depart="752.57" from="-346948672#3" to="26272023"/>
    <trip id="139" depart="758.03" from="-4267173" to="368003200"/>
    <trip id="140" depart="763.48" from="4196474#1" to="-4196468"/>
    <trip id="141" depart="768.93" from="39953271" to="-4262034"/>
    <trip id="142" depart="774.39" from="157692679#0" to="4958799"/>
    <trip id="143" depart="779.84" from="4287690" to="-3017274"/>
    <trip id="144" depart="785.29" from="-694954584" to="-4268889"/>
    <trip id="145" depart="790.75" from="-106751765#1" to="4262031"/>
    <trip id="146" depart="796.20" from="4018917" to="-4262032#1"/>
    <trip id="147" depart="801.65" from="4211578" to="253261928"/>
    <trip id="148" depart="807.11" from="-727020065#0" to="-157692674#1"/>
    <trip id="149" depart="812.56" from="-253261928" to="4829401"/>
    <trip id="150" depart="818.01" from="4958799" to="236680742"/>
    <trip id="151" depart="823.47" from="4287683#0" to="358539533"/>
    <trip id="152" depart="828.92" from="-392350950" to="-362445600#1"/>
    <trip id="153" depart="834.37" from="-4277783" to="4942766"/>
    <trip id="154" depart="839.83" from="4268894" to="4391619#0"/>
    <trip id="155" depart="845.28" from="4942766" to="-4196471"/>
    <trip id="156" depart="850.73" from="-4247019" to="-333611894#1"/>
    <trip id="157" depart="856.19" from="4267168" to="48605566#0"/>
    <trip id="158" depart="861.64" from="-61333932#3" to="3849560#1"/>
    <trip id="159" depart="867.09" from="-396922880#0" to="5197319"/>
    <trip id="160" depart="872.55" from="4391620" to="727020066#2"/>
    <trip id="161" depart="878.00" from="4277779#0" to="4829401"/>
    <trip id="162" depart="883.45" from="-182697107" to="4211576"/>
    <trip id="163" depart="888.91" from="-4288383" to="5197319"/>
    <trip id="164" depart="894.36" from="4268908" to="4391619#1"/>
    <trip id="165" depart="899.81" from="4277779#0" to="-4267168"/>
    <trip id="166" depart="905.27" from="4268886" to="-346948677"/>
    <trip id="167" depart="910.72" from="477731931" to="4356866"/>
    <trip id="168" depart="916.18" from="-4196547#0" to="4277781#0"/>
    <trip id="169" depart="921.63" from="1167320823" to="-4277782"/>
    <trip id="170" depart="927.08" from="4268891" to="-4211543"/>
    <trip id="171" depart="932.54" from="-182697107" to="-41642955#1"/>
    <trip id="172" depart="937.99" from="-4287771" to="4391620"/>
    <trip id="173" depart="943.44" from="61883421" to="-4268891"/>
    <trip id="174" depart="948.90" from="4018921#0" to="-574218753#3"/>
    <trip id="175" depart="954.35" from="807148182" to="23268804"/>
    <trip id="176" depart="959.80" from="54488662#0" to="-358972239"/>
    <trip id="177" depart="965.26" from="708133847#0" to="-4073063#2"/>
    <trip id="178" depart="970.71" from="6176981#0" to="-4267153"/>
    <trip id="179" depart="976.16" from="-346948672#3" to="-906641986#0"/>
    <trip id="180" depart="981.62" from="4211277#0" to="-4287683#0"/>
    <trip id="181" depart="987.07" from="362453234" to="214779355"/>
    <trip id="182" depart="992.52" from="-5036921#0" to="333611894#0"/>
    <trip id="183" depart="997.98" from="-4261977" to="4196471"/>
    <trip id="184" depart="1003.43" from="-106751765#0" to="5144707"/>
    <trip id="185" depart="1008.88" from="232181901" to="4196474#2"/>
    <trip id="186" depart="1014.34" from="4211578" to="4073065"/>
    <trip id="187" depart="1019.79" from="-4871754#2" to="-23268962"/>
    <trip id="188" depart="1025.24" from="4073063#0" to="-4288383"/>
    <trip id="189" depart="1030.70" from="-4287678#4" to="4287690"/>
    <trip id="190" depart="1036.15" from="4196474#2" to="-4277781#1"/>
    <trip id="191" depart="1041.60" from="-4277787" to="-61333932#8"/>
    <trip id="192" depart="1047.06" from="-574218753#5" to="-4277780#0"/>
    <trip id="193" depart="1052.51" from="-361257610#6" to="-694954584"/>
    <trip id="194" depart="1057.96" from="54489542" to="4073077"/>
    <trip id="195" depart="1063.42" from="4958799" to="368004905#0"/>
    <trip id="196" depart="1068.87" from="-4277781#1" to="24062643"/>
    <trip id="197" depart="1074.32" from="-106751765#0" to="-4277778#1"/>
    <trip id="198" depart="1079.78" from="-727020065#0" to="333611894#0"/>
    <trip id="199" depart="1085.23" from="4048467" to="123564625#1"/>
    <trip id="200" depart="1090.68" from="-9234350#2" to="-4196472"/>
    <trip id="201" depart="1096.14" from="132029167#0" to="4958799"/>
    <trip id="202" depart="1101.59" from="4268894" to="-4049619#0"/>
    <trip id="203" depart="1107.04" from="-276992921#1" to="224125601"/>
    <trip id="204" depart="1112.50" from="396922880#0" to="-4288423"/>
    <trip id="205" depart="1117.95" from="4277781#1" to="4246876"/>
    <trip id="206" depart="1123.41" from="4073066" to="-4211277#1"/>
    <trip id="207" depart="1128.86" from="-4189859#2" to="-182697107"/>
    <trip id="208" depart="1134.31" from="-4242656#1" to="132029167#0"/>
    <trip id="209" depart="1139.77" from="4288382#0" to="-24062643"/>
    <trip id="210" depart="1145.22" from="-6176943#1" to="396922880#1"/>
    <trip id="211" depart="1150.67" from="-41642955#1" to="4189859#2"/>
    <trip id="212" depart="1156.13" from="157694253#1" to="-4242656#1"/>
    <trip id="213" depart="1161.58" from="4049619#0" to="-1213527237"/>
    <trip id="214" depart="1167.03" from="4246872#3" to="4262030#2"/>
    <trip id="215" depart="1172.49" from="-333611894#1" to="-727020065#0"/>
    <trip id="216" depart="1177.94" from="-4060748#1" to="61333932#7"/>
    <trip id="217" depart="1183.39" from="224125601" to="-231147556"/>
    <trip id="218" depart="1188.85" from="-4247019" to="4287690"/>
    <trip id="219" depart="1194.30" from="1104605978" to="4268896#1"/>
    <trip id="220" depart="1199.75" from="4073063#1" to="906641986#1"/>
    <trip id="221" depart="1205.21" from="361257442#1" to="60982039"/>
    <trip id="222" depart="1210.66" from="4871756#0" to="368003202"/>
    <trip id="223" depart="1216.11" from="4196474#2" to="208356734"/>
    <trip id="224" depart="1221.57" from="4287678#4" to="24062643"/>
    <trip id="225" depart="1227.02" from="4936976#2" to="4211581#2"/>
    <trip id="226" depart="1232.47" from="132029167#0" to="-4262031"/>
    <trip id="227" depart="1237.93" from="-4246872#3" to="4018921#0"/>
    <trip id="228" depart="1243.38" from="4262029" to="227758447"/>
    <trip id="229" depart="1248.83" from="3850464" to="-4268887#1"/>
    <trip id="230" depart="1254.29" from="-259169859" to="-4277778#0"/>
    <trip id="231" depart="1259.74" from="-4267173" to="-4287687"/>
    <trip id="232" depart="1265.19" from="23268804" to="-3849560#0"/>
    <trip id="233" depart="1270.65" from="-4211544#0" to="4189859#0"/>
    <trip id="234" depart="1276.10" from="4196470" to="-23268778"/>
    <trip id="235" depart="1281.55" from="-61333932#5" to="23268961#1"/>
    <trip id="236" depart="1287.01" from="-6176963" to="-4196470"/>
    <trip id="237" depart="1292.46" from="-61883421" to="4958799"/>
    <trip id="238" depart="1297.91" from="333611894#0" to="4189859#1"/>
    <trip id="239" depart="1303.37" from="43320004" to="4262023"/>
    <trip id="240" depart="1308.82" from="-5001383#3" to="-1213527237"/>
    <trip id="241" depart="1314.27" from="-477731931" to="4247017#0"/>
    <trip id="242" depart="1319.73" from="4288423" to="61333932#4"/>
    <trip id="243" depart="1325.18" from="-618008355" to="4242657#0"/>
    <trip id="244" depart="1330.64" from="236680742" to="365599112#0"/>
    <trip id="245" depart="1336.09" from="-4196474#2" to="-4196474#2"/>
    <trip id="246" depart="1341.54" from="-904404508" to="-187007954#1"/>
    <trip id="247" depart="1347.00" from="-4288384" to="4073114#2"/>
    <trip id="248" depart="1352.45" from="-61333932#0" to="-4045044"/>
    <trip id="249" depart="1357.90" from="123564625#1" to="-362445600#1"/>
    <trip id="250" depart="1363.36" from="3849560#0" to="-187007954#1"/>
    <trip id="251" depart="1368.81" from="-5144708#0" to="276992921#2"/>
    <trip id="252" depart="1374.26" from="-187007954#1" to="4018943#1"/>
    <trip id="253" depart="1379.72" from="-368004905#1" to="1210308506"/>
    <trip id="254" depart="1385.17" from="-231147556" to="-5001383#3"/>
    <trip id="255" depart="1390.62" from="-4196471" to="-4287771"/>
    <trip id="256" depart="1396.08" from="4252292" to="-5001383#3"/>
    <trip id="257" depart="1401.53" from="4246876" to="4287678#4"/>
    <trip id="258" depart="1406.98" from="-4252292" to="-276992921#0"/>
    <trip id="259" depart="1412.44" from="-182697107" to="23268933#1"/>
    <trip id="260" depart="1417.89" from="975294056" to="-477731931"/>
    <trip id="261" depart="1423.34" from="403951938#0" to="4267168"/>
    <trip id="262" depart="1428.80" from="403951938#2" to="4247017#0"/>
    <trip id="263" depart="1434.25" from="60982039" to="-4189862"/>
    <trip id="264" depart="1439.70" from="-182697107" to="-396922879"/>
    <trip id="265" depart="1445.16" from="-361257610#6" to="4073065"/>
    <trip id="266" depart="1450.61" from="276992921#1" to="-4196474#1"/>
    <trip id="267" depart="1456.06" from="4189862" to="4262029"/>
    <trip id="268" depart="1461.52" from="-4048467" to="368003202"/>
    <trip id="269" depart="1466.97" from="4242654#1" to="-3585395330"/>
    <trip id="270" depart="1472.42" from="4277781#1" to="6176981#1"/>
    <trip id="271" depart="1477.88" from="-346948672#3" to="-187007954#1"/>
    <trip id="272" depart="1483.33" from="-4287678#0" to="4073077"/>
    <trip id="273" depart="1488.78" from="61333932#7" to="-535767419"/>
    <trip id="274" depart="1494.24" from="4196473#0" to="-259169859"/>
    <trip id="275" depart="1499.69" from="41642955#0" to="396922880#0"/>
    <trip id="276" depart="1505.14" from="-332517441" to="4262032#0"/>
    <trip id="277" depart="1510.60" from="4288382#1" to="362445600#1"/>
    <trip id="278" depart="1516.05" from="-361257610#0" to="807148182"/>
    <trip id="279" depart="1521.51" from="4267173" to="-4685766"/>
    <trip id="280" depart="1526.96" from="-727020065#0" to="-4958799"/>
    <trip id="281" depart="1532.41" from="204535887" to="-4391619#1"/>
    <trip id="282" depart="1537.87" from="4288382#0" to="4277781#1"/>
    <trip id="283" depart="1543.32" from="-333611894#1" to="6176945"/>
    <trip id="284" depart="1548.77" from="4018917" to="4287676"/>
    <trip id="285" depart="1554.23" from="4196470" to="-906641986#1"/>
    <trip id="286" depart="1559.68" from="4211544#0" to="61883421"/>
    <trip id="287" depart="1565.13" from="-4267173" to="4277778#2"/>
    <trip id="288" depart="1570.59" from="232181901" to="157692676"/>
    <trip id="289" depart="1576.04" from="-904404508" to="4211544#0"/>
    <trip id="290" depart="1581.49" from="-4267173" to="4288384"/>
    <trip id="291" depart="1586.95" from="4287678#4" to="-287520731"/>
    <trip id="292" depart="1592.40" from="4829401" to="-4242656#1"/>
    <trip id="293" depart="1597.85" from="1210308506" to="368003202"/>
    <trip id="294" depart="1603.31" from="-4996692" to="-187007954#1"/>
    <trip id="295" depart="1608.76" from="4288384" to="-4073065"/>
    <trip id="296" depart="1614.21" from="-4196471" to="4268894"/>
    <trip id="297" depart="1619.67" from="-43320004" to="4829401"/>
    <trip id="298" depart="1625.12" from="4196468" to="-4268888"/>
    <trip id="299" depart="1630.57" from="-157692675" to="59831616"/>
    <trip id="300" depart="1636.03" from="-276992921#1" to="4196547#1"/>
    <trip id="301" depart="1641.48" from="157692679#0" to="4247019"/>
    <trip id="302" depart="1646.93" from="41642955#0" to="4018945#0"/>
    <trip id="303" depart="1652.39" from="157694252" to="4268889"/>
    <trip id="304" depart="1657.84" from="-3017274" to="-4196547#0"/>
    <trip id="305" depart="1663.29" from="41642955#1" to="-4277783"/>
    <trip id="306" depart="1668.75" from="333611894#0" to="132029167#0"/>
    <trip id="307" depart="1674.20" from="23186963#0" to="-727020065#0"/>
    <trip id="308" depart="1679.65" from="4211581#2" to="-4288383"/>
    <trip id="309" depart="1685.11" from="4196468" to="-4267173"/>
    <trip id="310" depart="1690.56" from="-4252292" to="-361257610#0"/>
    <trip id="311" depart="1696.01" from="-41642955#1" to="-361257442#1"/>
    <trip id="312" depart="1701.47" from="23186963#1" to="4252292"/>
    <trip id="313" depart="1706.92" from="-4073065" to="-4196474#0"/>
    <trip id="314" depart="1712.37" from="157692675" to="4210631#0"/>
    <trip id="315" depart="1717.83" from="727020066#2" to="23177745"/>
    <trip id="316" depart="1723.28" from="-4268894" to="-326819232"/>
    <trip id="317" depart="1728.74" from="-41642955#1" to="-4211543"/>
    <trip id="318" depart="1734.19" from="-4073063#2" to="-157692679#0"/>
    <trip id="319" depart="1739.64" from="23186963#1" to="-4268887#1"/>
    <trip id="320" depart="1745.10" from="727020065#2" to="26272023"/>
    <trip id="321" depart="1750.55" from="4189859#2" to="-361257610#6"/>
    <trip id="322" depart="1756.00" from="4685766" to="157694253#1"/>
    <trip id="323" depart="1761.46" from="478332037" to="318100414#1"/>
    <trip id="324" depart="1766.91" from="130995873" to="-9234350#2"/>
    <trip id="325" depart="1772.36" from="-4073065" to="-232181901"/>
    <trip id="326" depart="1777.82" from="55973996" to="132858610"/>
    <trip id="327" depart="1783.27" from="4277782" to="-574218753#5"/>
    <trip id="328" depart="1788.72" from="-24062643" to="396922880#1"/>
    <trip id="329" depart="1794.18" from="-23236020" to="-392350950"/>
    <trip id="330" depart="1799.63" from="276992921#0" to="-4277781#1"/>
    <trip id="331" depart="1805.08" from="970453666#0" to="-361257442#0"/>
    <trip id="332" depart="1810.54" from="4262023" to="368003201"/>
    <trip id="333" depart="1815.99" from="4268887#0" to="-4211277#1"/>
    <trip id="334" depart="1821.44" from="227604414#5" to="106751765#1"/>
    <trip id="335" depart="1826.90" from="-9234350#2" to="4356866.84"/>
    <trip id="336" depart="1832.35" from="906641987#1" to="-4277782"/>
    <trip id="337" depart="1837.80" from="37137371" to="368003202"/>
    <trip id="338" depart="1843.26" from="4211578" to="574218753#9"/>
    <trip id="339" depart="1848.71" from="-4196470" to="-4196471"/>
    <trip id="340" depart="1854.16" from="4049619#2" to="-397147638"/>
    <trip id="341" depart="1859.62" from="-4049619#2" to="-253261928"/>
    <trip id="342" depart="1865.07" from="-106751765#0" to="106751765#1"/>
    <trip id="343" depart="1870.52" from="361255883" to="-4277778#3"/>
    <trip id="344" depart="1875.98" from="-4211544#0" to="4196470"/>
    <trip id="345" depart="1881.43" from="4196468" to="1104605978"/>
    <trip id="346" depart="1886.88" from="40893861#0" to="51301314"/>
    <trip id="347" depart="1892.34" from="4268886" to="391192166#0"/>
    <trip id="348" depart="1897.79" from="4049619#2" to="5197319"/>
    <trip id="349" depart="1903.24" from="-708133847#1" to="236680742"/>
    <trip id="350" depart="1908.70" from="4018943#1" to="4996692"/>
    <trip id="351" depart="1914.15" from="4277786#1" to="-23901141"/>
    <trip id="352" depart="1919.60" from="-4045044" to="-4277786#0"/>
    <trip id="353" depart="1925.06" from="4242657#0" to="302571490"/>
    <trip id="354" depart="1930.51" from="-4277778#1" to="-361257610#5"/>
    <trip id="355" depart="1935.97" from="41433586" to="41961242"/>
    <trip id="356" depart="1941.42" from="574218753#11" to="187007954#0"/>
    <trip id="357" depart="1946.87" from="157694253#1" to="-267304941"/>
    <trip id="358" depart="1952.33" from="-227604414#5" to="-790870142"/>
    <trip id="359" depart="1957.78" from="-4287689" to="-4252292"/>
    <trip id="360" depart="1963.23" from="-287522412" to="6176960"/>
    <trip id="361" depart="1968.69" from="4287685" to="326819230"/>
    <trip id="362" depart="1974.14" from="60982039" to="975294056"/>
    <trip id="363" depart="1979.59" from="4073065" to="-4267173"/>
    <trip id="364" depart="1985.05" from="-227604416" to="4247017#2"/>
    <trip id="365" depart="1990.50" from="130995873" to="4048467"/>
    <trip id="366" depart="1995.95" from="5042806" to="-4073064"/>
    <trip id="367" depart="2001.41" from="346948672#0" to="4018920"/>
    <trip id="368" depart="2006.86" from="157694253#0" to="-3017274"/>
    <trip id="369" depart="2012.31" from="-4685766" to="-4288383"/>
    <trip id="370" depart="2017.77" from="4073065" to="43320004"/>
    <trip id="371" depart="2023.22" from="-4287771" to="4189859#0"/>
    <trip id="372" depart="2028.67" from="-4277778#1" to="574218753#11"/>
    <trip id="373" depart="2034.13" from="4277780#0" to="242737762#1"/>
    <trip id="374" depart="2039.58" from="1104605978" to="-4287684"/>
    <trip id="375" depart="2045.03" from="-4287689" to="704214696"/>
    <trip id="376" depart="2050.49" from="-61333932#0" to="224125601"/>
    <trip id="377" depart="2055.94" from="906641986#1" to="4060748#0"/>
    <trip id="378" depart="2061.39" from="23268933#1" to="-6176945"/>
    <trip id="379" depart="2066.85" from="-40893861#2" to="-4871754#0"/>
    <trip id="380" depart="2072.30" from="4247017#1" to="391192166#0"/>
    <trip id="381" depart="2077.75" from="4247019" to="-4196468"/>
    <trip id="382" depart="2083.21" from="23901141" to="5144708#1"/>
    <trip id="383" depart="2088.66" from="-906641986#1" to="4189862"/>
    <trip id="384" depart="2094.11" from="-361257610#0" to="708133847#0"/>
    <trip id="385" depart="2099.57" from="368003200" to="-4242654#0"/>
    <trip id="386" depart="2105.02" from="-4018918" to="246640282#0"/>
    <trip id="387" depart="2110.47" from="242568603#0" to="-302571490"/>
    <trip id="388" depart="2115.93" from="9234350#1" to="5001383#2"/>
    <trip id="389" depart="2121.38" from="1202586595#0" to="-361257442#0"/>
    <trip id="390" depart="2126.83" from="4287681" to="177845942"/>
    <trip id="391" depart="2132.29" from="4196474#0" to="214767924"/>
    <trip id="392" depart="2137.74" from="-4268886" to="4287682"/>
    <trip id="393" depart="2143.20" from="807148180" to="-4242656#1"/>
    <trip id="394" depart="2148.65" from="24062643" to="-5036921#0"/>
    <trip id="395" depart="2154.10" from="51301314" to="214767924"/>
    <trip id="396" depart="2159.56" from="4829401" to="4391619#1"/>
    <trip id="397" depart="2165.01" from="-4268887#1" to="4268886"/>
    <trip id="398" depart="2170.46" from="-6176945" to="5197319"/>
    <trip id="399" depart="2175.92" from="208356734" to="4277781#1"/>
    <trip id="400" depart="2181.37" from="-4268894" to="-4277781#0"/>
    <trip id="401" depart="2186.82" from="358539533" to="975294056"/>
    <trip id="402" depart="2192.28" from="157692679#0" to="-392350950"/>
    <trip id="403" depart="2197.73" from="23268804" to="-4432743"/>
    <trip id="404" depart="2203.18" from="24062643" to="236680742"/>
    <trip id="405" depart="2208.64" from="1104605978" to="-4287689"/>
    <trip id="406" depart="2214.09" from="-40893861#2" to="4189862"/>
    <trip id="407" depart="2219.54" from="3017274" to="-4211547#1"/>
    <trip id="408" depart="2225.00" from="4262035" to="-227758447"/>
    <trip id="409" depart="2230.45" from="4211581#1" to="4196470"/>
    <trip id="410" depart="2235.90" from="4277779#0" to="-5042806"/>
    <trip id="411" depart="2241.36" from="4073063#0" to="4277781#1"/>
    <trip id="412" depart="2246.81" from="807148182" to="158080156#1"/>
    <trip id="413" depart="2252.26" from="-227604414#0" to="187007954#0"/>
    <trip id="414" depart="2257.72" from="358539533.94" to="4685766"/>
    <trip id="415" depart="2263.17" from="478819319#0" to="-9234350#2"/>
    <trip id="416" depart="2268.62" from="231147556" to="1104605979#1"/>
    <trip id="417" depart="2274.08" from="4196547#1" to="-61333932#8"/>
    <trip id="418" depart="2279.53" from="4048467" to="-396922880#0"/>
    <trip id="419" depart="2284.98" from="130995873" to="704090237#0"/>
    <trip id="420" depart="2290.44" from="-4288424#0" to="4189859#0"/>
    <trip id="421" depart="2295.89" from="4018945#0" to="4288384"/>
    <trip id="422" depart="2301.34" from="4288423" to="4356866"/>