<?xml version="1.0" encoding="UTF-8"?>

<!-- generated on 2024-06-09 16:43:00.399005 by randomTrips.py UNKNOWN
<configuration>
    <net-file value="config/osm.net.xml.gz"/>
    <route-file value="config/osm.passenger.trips.xml"/>
    <length value="True"/>
    <end value="10000.0"/>
    <insertion-density value="6.0"/>
</configuration>
-->

<!-- generated on 2024-06-09 16:42:59 by Eclipse SUMO duarouter Version 1.20.0
<configuration xmlns:xsi="http://www.w3.org/2001/XMLSchema-instance" xsi:noNamespaceSchemaLocation="http://sumo.dlr.de/xsd/duarouterConfiguration.xsd">

    <input>
        <net-file value="config/osm.net.xml.gz"/>
        <route-files value="trips.trips.xml"/>
    </input>

    <output>
        <output-file value="config/osm.passenger.trips.xml"/>
        <alternatives-output value="NUL"/>
    </output>

    <time>
        <begin value="0"/>
        <end value="10000.0"/>
    </time>

    <report>
        <no-warnings value="true"/>
        <ignore-errors value="true"/>
        <no-step-log value="true"/>
    </report>

</configuration>
-->

<routes xmlns:xsi="http://www.w3.org/2001/XMLSchema-instance" xsi:noNamespaceSchemaLocation="http://sumo.dlr.de/xsd/routes_file.xsd">
    <vehicle id="0" depart="0.00">
        <route edges="28431139 -28431114#2 -28431089 24010309#6 24010309#7 24010309#8 24010307#0 24010307#1 219206167#0 219206167#1 219206170#0 219206170#1 219206170#2 -24010305#1 -24010305#0 24411737#0 28444944 199901322 153333143#0 153333143#1 150992316#3 -215063191#1"/>
    </vehicle>
    <vehicle id="1" depart="2.40">
        <route edges="-28531936#0 -895030158#5 -895030158#4 -895030158#3 -895030158#2 -525245329 532834699#0 4597527#1 43956724#0 162816785#0 162816785#1 200817228#0 200817228#1 4597577#0 28512590#2 28512604#0 4597577#2 1205252233#1 43950174 24280744 499367884#0 43950170#0 -409854846#5 24010217#0 28469808#0 -28469808#0"/>
    </vehicle>
    <vehicle id="2" depart="4.80">
        <route edges="28507490 -28507490 -23101374#1 -23101374#0 320365731 320365728 320368007 320368008 322323289 -320365735 -28445677#4 -28445677#3 -28445677#2 28445306#0"/>
    </vehicle>
    <vehicle id="3" depart="7.20">
        <route edges="43956693 -43956693 -895030158#5 -895030158#4 -895030158#3 -895030158#2 -525245329 532834699#0 4597527#1 43956724#0 162816785#0 162816785#1 200817228#0 200817228#1 4597577#0 28512590#2 28512604#0 4597577#2 1205252233#1 43950174 24280744 499367884#0 43950170#0 24212016#0 24212016#2 368027901#1 368027901#2 1205192208 24210398 24280903 24411737#0 -24411737#0"/>
    </vehicle>
    <vehicle id="4" depart="9.59">
        <route edges="-829372257#0 829372257#0 215063191#0 215063191#1 215063191#2 -215063191#2"/>
    </vehicle>
    <vehicle id="5" depart="11.99">
        <route edges="-28469775#0 25900011#13 25900011#14 25900011#15 25900013#1 24219784#2 24219784#3 24427152 24219797#0 24219797#1 24219797#3 25900257#0 25900258 24445068#0 24445068#2 -4597523#1 -4597523#0 23101307#2"/>
    </vehicle>
    <vehicle id="6" depart="14.39">
        <route edges="-215063191#1 -215063191#0 829372257#1 1106175081 1155595961#0 1155595961#1 1155595961#2 1155595960 379326784#0 379326664#1 379326666 -43956704#1 -43956704#0 1205192208 24210398 24280903 24010305#0 24010448 24010453#0 24010453#1 24010453#2 24010453#3 24010453#4 24010453#5 219206165#0 219206165#1 294063995 375567747 320367232#5 320367232#6 320367232#1 375568213 -375568349 375568212 1056492423 375568348 -294063994 28446072 -28445978#1"/>
    </vehicle>
    <vehicle id="7" depart="16.79">
        <route edges="28439703#0 -28439703#0 219206170#2 -24010305#1 -24010305#0 -24280903 24280679 24280729#0 24280729#1 24280729#2 24280729#3 24280721 4597554#0 219206169#0 24280746 24219715#0"/>
    </vehicle>
    <vehicle id="8" depart="19.19">
        <route edges="-28469775#2 -28469775#1 -28469775#1.19 -28469775#0 -25900011#12 -25900011#11 -25900011#10 -25900011#9 28469747#0 28469747#1 28469747#2 -318308310#2 -318308310#1 -318308310#0 -322323287 320365733 320368011 320368012 320365728 320365730 -376934403 375567640 320367232#1 320367232#2 320367232#3 375567748 -294063995 -219206165#1 -219206165#0 24010452#0 24010452#1 24010452#2 24010447#0 24010447#1 -24429421#0 24429421#0"/>
    </vehicle>
    <vehicle id="9" depart="21.59">
        <route edges="306835269#0 306835231#1 499367889#1-AddedOnRampEdge 499367889#1 499367889#1-AddedOffRampEdge 306828551 708554205 375887656#3 379326664#1 379326666 -43956704#1 -43956704#0 1205192208 24210398 24280903 24411737#0 28444944 -150992308"/>
    </vehicle>
    <vehicle id="10" depart="23.99">
        <route edges="306827382 367477211#1-AddedOnRampEdge 367477211#1 367477211#2-AddedOnRampEdge 367477211#2 367477211#3 318305760-AddedOnRampEdge 318305760 318305760-AddedOffRampEdge 4597563#0 1205252233#1 43950174 24280744 499367884#0 43950167#0 1009876740 1015672962 24010232 1155893629 1155893628#1 1155893628#2 43950161#0 43950161#2 43950161#3 43950161#4 43950161#5 43950161#6 43950161#7 43950161#8 318308318 -322323287 320365733 320368011 318308313 23101374#0 28445924#0 28445924#1"/>
    </vehicle>
    <vehicle id="11" depart="26.39">
        <route edges="-379116413 379116411#1 -387845906#0 -866924641 -379116409 -28440668#0 -28440663 -4597575#0 24010305#0 24010448 24010453#0 24010453#1 24010453#2 28439734 -28439734"/>
    </vehicle>
    <vehicle id="12" depart="28.78">
        <route edges="532834685#1 24411768#0 24409433#4 24310336#0 4597527#1 43956724#0 162816785#0 162816785#1 200817228#0 200817228#1 4597577#0 28512590#2 28512604#0 4597577#2 1205252233#1 43950174 24280744 499367884#0 43950167#0 1009876740 1015672962 24010232 1155893629 1155893628#1 1155893628#2 43950161#0 43950161#2 43950161#3 43950161#4 43950161#5 43950161#6 43950161#7 43950161#8 318308318 -322323287 320365733 320368011 320368012 320365728 320365730 -376934403"/>
    </vehicle>
    <vehicle id="13" depart="31.18">
        <route edges="-24411739#4 -24411739#3 -24411739#2 -24411739#1 -24411739#0 -24411737#4 -24411737#3 -24411737#2 -24411737#1 -24411737#0 24010305#0 24010305#1 -219206170#2 -219206170#1 -219206170#0 24010372#0 24010372#1 -24429414#1"/>
    </vehicle>
    <vehicle id="14" depart="33.58">
        <route edges="368027894 24398403 44179485 150913629 24398402 52024395#0 52024395#1-AddedOnRampEdge 52024395#1 52024395#1-AddedOffRampEdge 37759107#0 37759107#1-AddedOnRampEdge 37759107#1 499367895-AddedOnRampEdge 499367895 499367895-AddedOffRampEdge 24280627 -1103958607 24212016#0 24212016#2 368027901#1 368027901#2 1205192208 24210398 24280903 24010305#0 24010305#1 24010305#2 24010305#3 24010305#4 24010305#5 24460187#0"/>
    </vehicle>
    <vehicle id="15" depart="35.98">
        <route edges="306828551 708554205 375887656#3 379326664#1 379326666 -43956704#1 -43956704#0 24280729#0 24280729#1 24280729#2 24280729#3 -409854846#5 24010217#0 24010217#1 24010217#2 28469820#0"/>
    </vehicle>
    <vehicle id="16" depart="38.38">
        <route edges="24010453#1 -24010453#1 -24010453#0 -24010448 -24010305#0 24411737#0 28444944 199901322 199889212#0 65239262"/>
    </vehicle>
    <vehicle id="17" depart="40.78">
        <route edges="-4597561 -24010448 -24010305#0 -24280903 24280679"/>
    </vehicle>
    <vehicle id="19" depart="45.57">
        <route edges="37717826#1 -37717826#1 -37717826#0 -28531978 -28531919 -28531927 -895030158#5 -895030158#4 -895030158#3 -895030158#2 -525245329 532834699#0 4597527#1 43956724#0 162816785#0 162816785#1 200817228#0 200817228#1 4597577#0 28512590#2 28512604#0 4597577#2 1205252233#1 43950174 24280744 499367884#0 43950170#0 24212016#0 24212016#2 368027901#1 368027901#2 1205192208 24210398 24280903 24411737#0 24411737#1 24411737#2 24411737#3 24411737#4 24411739#0 24411739#1 24411739#2 24411739#3"/>
    </vehicle>
    <vehicle id="20" depart="47.97">
        <route edges="28446077#0 28446077#1 28446077#2 -28446045#1 -28446045#0 -28446034#0 -28445978#0 -23101374#4 -23101374#3 -23101374#2 -23101374#1 -23101374#0"/>
    </vehicle>
    <vehicle id="21" depart="50.37">
        <route edges="-28469820#3 -28469820#2 28469862 318975590#0 43950161#5 43950161#6 43950161#7 43950161#8 318308318 -322323287 320365733 320368011 320368012 320365728 320365730 -376934403 375567640 320367232#1 375568213 -375568349 375568212 1056492423 1056492426 1056492427 375568548 -294063993#1"/>
    </vehicle>
    <vehicle id="22" depart="52.77">
        <route edges="-24280903 24280679 24280729#0 4597570#1 4597570#2 4597570#3 318256917#1 318256917#2 24411731#3 409854845 28445710#0 28445710#1 1155096764 318975586 318977773#0 318977773#1 43950161#7 43950161#8 318308318 -322323287 320365733 320368011 318308313 23101374#0 23101374#1 23101374#2 23101374#3 28507472 -28507472"/>
    </vehicle>
    <vehicle id="23" depart="55.17">
        <route edges="-24429449 -24010452#0 219206165#0 219206165#1 294063995 375567747 320367232#5 375567745 375567746 320365729 320368008 320368009 320368010 320365732 322323287 318308310#0 318308310#1 318308310#2 318308310#3 318308310#4 867818229 867818228 867818225 867818231 867818224#0 867818224#1 867818224#2 867818224#3 867818224#6 24310270 46650408#0 1117753758#0 24445068#0 24445068#2 200184698 368027897 24445083#0 164370543 24445116 -895030157#6 -37619844 -28531940#1 -28531940#0"/>
    </vehicle>
    <vehicle id="24" depart="57.57">
        <route edges="28431014 -28431014 -28431008#0 294063993#0 294063993#1 375568549 320367236 375568350 375568349 375568211 320367232#3 320367232#4 320367232#5 375567745 375567746 320365729 320368008 320368009 320368010 320365732 322323287 318308310#0 318308310#1 318308310#2 318308310#3 318308310#4 867818229 867818228 867818225 867818231 867818224#0 867818224#1 867818224#2 867818224#3 867818224#6 24310270 46650408#0 1117753758#0 24445068#0 24445068#2 200184698 368027897 24445083#0 164370543 24445116 164370531 43956694 165174169#0 366874231#0 366874231#1-AddedOnRampEdge 366874231#1 -43956694"/>
    </vehicle>
    <vehicle id="25" depart="59.97">
        <route edges="-4597514#1 4597529#1 -200184696 200184697#0 200184697#1 1117753757 1117753755 -46650408#2 -152330551#2 -867818224#8 -867818224#5 -867818224#2 -867818224#1 -867818224#0 -867818231 867818227 -867818228 867818230 -318308310#4 -318308310#3 -318308310#2 -318308310#1 -318308310#0 -322323287 320365733 320368011 320368012 320365728 320365730 -376934403 375567640 320367232#1 375568213 -375568349 375568212 1056492423 375568348 -294063994 28446072 46650412#0 28446127#0 28446138 -28446138"/>
    </vehicle>
    <vehicle id="26" depart="62.37">
        <route edges="-28531901#1 -28531901#0 -895030158#2 -525245329 532834699#0 4597527#1 43956724#0 162816785#0 162816785#1 200817228#0 200817228#1 4597577#0 28512590#2 28512604#0 4597577#2 1205252233#1 43950174 24280744 499367884#0 43950170#0 24212016#0 24212016#2 368027901#1 368027901#2 1205192208 24210398 24280903 24411737#0 24411737#1 24411737#2 24411737#3 24411737#4 49431368#0"/>
    </vehicle>
    <vehicle id="27" depart="64.76">
        <route edges="28439640#0 -28439619#0 -24010305#3 -24010305#2 -24010305#1 -24010305#0 -24280903 24280679 24280729#0 24280729#1 24280729#2 24280729#3 24280721 4597554#0 43950167#0 1009876740 1015672962 24010232 1155893629 1155893628#1 -25035713#4 -25035713#3 25035713#3"/>
    </vehicle>
    <vehicle id="28" depart="67.16">
        <route edges="-284450520 -24411739#4 -24411739#3 -24411739#2 -24411739#1 -24411739#0 -24411737#4 -24411737#3 -24411737#2 -24411737#1 -24411737#0 -24280903 24280679 24280729#0 24280729#1 24280729#2 24280729#3 -409854846#5 24010217#0 24010217#1 28469813"/>
    </vehicle>
    <vehicle id="29" depart="69.56">
        <route edges="-28440668#0 -28440663 -4597575#0 24010305#0 24010448 4597561 -4597561"/>
    </vehicle>
    <vehicle id="31" depart="74.36">
        <route edges="24280744 499367884#0 43950170#0 24212016#0 24212016#2 368027901#1 4597570#1 4597570#2 4597570#3 318256917#1 28609620 -24411731#0 219206166#1 28445704"/>
    </vehicle>
    <vehicle id="32" depart="76.76">
        <route edges="367477211#1 367477211#2-AddedOnRampEdge 367477211#2 306836119 409854841 -499367887#1 -499367887#0 -475519153#2 -475519153#0 -475519154 24411768#0 24409433#4 24310336#0 532834700#1 532834694 895030158#0 28531901#0 28531901#1 28531907#3"/>
    </vehicle>
    <vehicle id="33" depart="79.16">
        <route edges="-28469850#0 -409854846#0 -409854842 -409854847 -24411731#3 -24411731#2 -24411731#1 -24411731#0 -4597561 24010453#0 24010453#1 24010453#2 24010453#3 24010453#4 24010453#5 219206165#0 -219206165#0"/>
    </vehicle>
    <vehicle id="34" depart="81.55">
        <route edges="-318976067#0 318976067#0 318976067#1 318308310#1 318308310#2 318308310#3 318308310#4 867818229 867818228 867818225 867818231 867818224#0 867818224#1 867818224#2 867818224#3 867818224#6 24310270 46650408#0 1117753758#0 24445068#0 24445068#2 200184698 368027897 24445083#0 164370543 24445116 164370531 43956694 165174169#0 165174171 -43956688 -895274369 895274372 895274371 -1182941318#0 -28531907#4 -28531907#3 28531901#2 -28531901#2"/>
    </vehicle>
    <vehicle id="36" depart="86.35">
        <route edges="409854836#1 409854836#2 -367474275 306832194 367477211#2-AddedOnRampEdge 367477211#2 367477211#3 318305760-AddedOnRampEdge 318305760 318305760-AddedOffRampEdge 4597563#0 1205252233#1 43950174 24280744 499367884#0 43950167#0 1009876740 1015672962 24010232 1155893629 1155893628#1 1155893628#2 43950161#0 43950161#2 43950161#3 43950161#4 318975590#1 -318975590#1"/>
    </vehicle>
    <vehicle id="39" depart="93.55">
        <route edges="-28531901#0 -895030158#2 -525245329 532834699#0 475519148#0 532834685#1 532834686 475519153#0 475519153#2 318263112 615174342 499367881#1 615174339 -901591635#1 -901591635#0 901591636#1 901591634 28511545#1 -28511545#1"/>
    </vehicle>
    <vehicle id="40" depart="95.95">
        <route edges="24398271#0 24445068#0 24445068#2 200184698 24445073 200817231#0 200817231#1 24429459 1128202930#3 1128202930#4 37312617 43956731#0 43956731#1 24409429#2 532834664#0 475519148#0 532834685#1 532834686 475519153#0 475519153#2 499367887#0 -28512779"/>
    </vehicle>
    <vehicle id="41" depart="98.34">
        <route edges="24429414#0 -24429414#0 219206170#2 -24010305#1 -24010305#0 24411737#0 28444944 199901322 153333143#0 153333143#1 150992316#3 43956703#1"/>
    </vehicle>
    <vehicle id="43" depart="103.14">
        <route edges="901591634 -28511545#0 -43956704#0 24280729#0 24280729#1 24280729#2 24280729#3 24280721 4597554#0 43950167#0 1009876740 43950166 25900362 1015672964 1015672963#0 1015672963#1 1009877297 37619847#0 -25900012#3 -25900012#2 25900013#0 25900013#1 24219784#2 23523334"/>
    </vehicle>
    <vehicle id="44" depart="105.54">
        <route edges="-24411739#3 -24411739#2 -24411739#1 -24411739#0 -24411737#4 -24411737#3 -24411737#2 -24411737#1 -24411737#0 -24280903 24280679 24280729#0 24280729#1 24280729#2 24280729#3 24280721 4597554#0 219206169#0 24280746 24219715#0 499367896#0 499367896#2 499367896#3 499367896#4 200817229#0 24409429#2 532834664#0 532834700#1 532834694 895030157#0 -232369956"/>
    </vehicle>
    <vehicle id="45" depart="107.94">
        <route edges="-25035714#2 -25035715#2 -867818231 867818227 -867818228 867818230 -318308310#4 -318308310#3 -318308310#2 -318308310#1 -318308310#0 -322323287 320365733 320368011 320368012 320365728 320365730 -376934403 375567640 320367232#1 375568213 -375568349 375568212 1056492423 1056492426 1056492427 375568548 -294063993#1 -294063993#0 -24010309#8 -24010309#7 -24010309#6 -24010309#5 -24010309#4 -24010309#3 -24010309#2 -24010309#1 -24010309#0 -366874227#2 28430767#0 28430767#1 28430767#2"/>
    </vehicle>
    <vehicle id="46" depart="110.34">
        <route edges="28609630#1 -318256919 368027901#1 368027901#2 -24398533 43956704#1 1150535796#0 1150535796#1 1106175080#1 1106175080#2 1155599747 1106175077#1 1106175077#2 1106175077#3 1106175079 -829372257#1 -829372257#0"/>
    </vehicle>
    <vehicle id="47" depart="112.74">
        <route edges="-24010372#0 219206170#0 219206170#1 219206170#2 -24010305#1 -24010305#0 4597575#0 4597575#1 -4597575#1"/>
    </vehicle>
    <vehicle id="48" depart="115.14">
        <route edges="895274369 -28531978 -28531919 -28531927 -895030158#5 -895030158#4 -895030158#3 -895030158#2 -525245329 532834699#0 4597527#1 43956724#0 162816785#0 162816785#1 200817228#0 200817228#1 4597577#0 28512590#2 28512604#0 4597577#2 1205252233#1 43950174 24280744 499367884#0 43950170#0 24212016#0 24212016#2 368027901#1 368027901#2 1205192208 24210398 24280903 24010305#0 24010305#1 24010305#2 24010305#3 24010305#4 24010373#0 24010373#1 24010373#2"/>
    </vehicle>
    <vehicle id="49" depart="117.53">
        <route edges="65239258 -65239258 65239264#1 -24411740 24411739#7 -49431368#2 -49431368#1 -49431368#0 -24411737#4 -24411737#3 -24411737#2 -24411737#1 -24411737#0 -24280903 24280679 24280729#0 24280729#1 24280729#2 24280729#3 24280721 4597554#0 219206169#0 24280746 24219715#0 499367896#0 499367896#2 499367896#3 499367896#4 200817229#0 24409429#2 532834664#0 532834700#1 532834694 895030158#0 895030158#3 895030158#4 895030158#5 28531927 28531919 28531978 37717826#0 37717826#1 -38295585 37619852#3"/>
    </vehicle>
    <vehicle id="50" depart="119.93">
        <route edges="-153333143#0 -199901322 -379116415 -24411737#0 24010305#0 24010448 24010453#0 24010453#1 24010453#2 24010453#3 24010453#4 24010453#5 219206165#0 219206165#1 294063995 375567747 320367232#5 375567745 375567746 320365729 320368008 320368009 320368010 320365732 322323287 318308310#0 318308310#1 318308310#2 -28469747#2 28469766#1"/>
    </vehicle>
    <vehicle id="51" depart="122.33">
        <route edges="28445677#3 -28445677#3 -28445677#2 -28445677#1 -28445677#0 -4597561 24010453#0"/>
    </vehicle>
    <vehicle id="52" depart="124.73">
        <route edges="-28531901#1 -28531901#0 -895030158#2 -525245329 532834699#0 4597527#1 43956724#0 162816785#0 162816785#1 200817228#0 200817228#1 4597577#0 28512590#2 28512604#0 4597577#2 1205252233#1 43950174 24280744 499367884#0 43950170#0 24212016#0 24212016#2 368027901#1 368027901#2 1205192208 24210398 24280903 24010305#0 24010305#1 -219206170#2 -219206170#1 -219206170#0 -219206167#1 -219206167#0 -24010307#1 -24010307#0 -24010309#8 -24010309#7 -24010309#6 28431089 28431114#2"/>
    </vehicle>
    <vehicle id="53" depart="127.13">
        <route edges="-25035716#0 867818225 867818231 867818224#0 867818224#1 867818224#2 867818224#3 867818224#6 24310270 46650408#0 1117753758#0 24445068#0 24445068#2 200184698 368027897 24445083#0 164370543 24445116 164370531 43956694 165174169#0 165174171 -43956688 -895274369"/>
    </vehicle>
    <vehicle id="54" depart="129.53">
        <route edges="150992308 -379116415 -24411737#0 -24280903 24280679 24280729#0 24280729#1 24280729#2 24280729#3 24280721 4597554#0 43950167#0 1009876740 43950166 25900362 1015672964 1015672963#0 1015672963#1 1009877297 37619847#0 -25900012#3 -25900012#2 25900013#0 25900013#1 24219784#2 23523334 52024395#1-AddedOnRampEdge 52024395#1"/>
    </vehicle>
    <vehicle id="55" depart="131.93">
        <route edges="409854833 367477211#0 367477211#1-AddedOnRampEdge 367477211#1 367477211#2-AddedOnRampEdge 367477211#2 367477211#3 318305760-AddedOnRampEdge 318305760 318305760-AddedOffRampEdge 1015477285 499367899-AddedOnRampEdge 499367899 708217603#0 708217603#0-AddedOffRampEdge 708217603#1 708217603#2-AddedOnRampEdge 708217603#2 708217603#2-AddedOffRampEdge 45265469 24219797#3 25900257#0 25900258 24445068#0 24445068#2 200184698 24445073 200817231#0 -28512897"/>
    </vehicle>
    <vehicle id="56" depart="134.32">
        <route edges="23101284#0 -23101284#0 24445115#1 24270112#0 164370494#0 24270111 200184697#0 200184697#1 1117753757 1117753755 -46650408#2 -152330551#2 -867818224#8 -867818224#5 -867818224#2 -867818224#1 -867818224#0 -867818231 867818227 -867818228 867818230 -318308310#4 -318308310#3 -318308310#2 -318308310#1 -318308310#0 -322323287 320365733 320368011 320368012 320365728 320368007 320368008 322323289 -320365735 -28445677#4 -28445677#3 -28445677#2 -28445677#1 -28445677#0"/>
    </vehicle>
    <vehicle id="57" depart="136.72">
        <route edges="4597529#0 4597514#1 -24280557#2 -24280557#1 -24280557#0 -43950173#1 -43950173#0 43950174 24280744 499367884#0 43950170#0 24212016#0 24212016#2 368027901#1 368027901#2 -24398533 43956704#1 1150535796#0 379326666"/>
    </vehicle>
    <vehicle id="58" depart="139.12">
        <route edges="-306832005#1 -306832005#0 409854836#3 1205191496#0 379326664#1 379326666 -43956704#1 -43956704#0 1205192208 24210398 24280903 24010305#0 24010305#1 -219206170#2 -219206170#1 -219206170#0 -219206167#1 -219206167#0 -24010307#1 -24010307#0 -24010309#8 -24010309#7 -24010309#6 28431031 28431040"/>
    </vehicle>
    <vehicle id="59" depart="141.52">
        <route edges="25035715#0 -867818231 867818227 -867818228 867818230 -318308310#4 -318308310#3 -318308310#2 -318308310#1 -318308310#0 -322323287 320365733 320368011 320368012 320365728 320365730 -376934403 375567640 320367232#1 320367232#2 320367232#3 375567748 -294063995 -219206165#1 -219206165#0 24010452#0 24010452#1 24010452#2 24010447#0 24010447#1 24010447#2 219206167#0 219206167#1 219206170#0 219206170#1 28439703#0 -28439703#0"/>
    </vehicle>
    <vehicle id="60" depart="143.92">
        <route edges="28512760#0 28512760#1 28512760#2 475519153#2 499367887#0 499367887#1 409854837 318305760-AddedOnRampEdge 318305760 318305760-AddedOffRampEdge 4597563#0 1205252233#1 43950174 24280744 499367884#0 43950167#0 1009876740 1015672962 24010232 1155893629 1155893628#1 1155893628#2 43950161#0 43950161#2 43950161#3 43950161#4 43950161#5 43950161#6 43950161#7 43950161#8 318308318 -322323287 320365733 320368011 320368012 320365728 320365730 -376934403 375567640 320367232#1 320367232#2 320367232#3 375567748 -294063995 -24010499#3 -24010499#2 -24010499#1 -24010499#0 24411714 -24411714 24010499#0"/>
    </vehicle>
    <vehicle id="61" depart="146.32">
        <route edges="28531936#0 -28531936#0 -895030158#5 -895030158#4 -895030158#3 -895030158#2 -525245329 532834699#0 4597527#1 43956724#0 162816785#0 162816785#1 200817228#0 200817228#1 4597577#0 28512590#2 28512604#0 4597577#2 1205252233#1 43950174 24280744 499367884#0 43950170#0 24212016#0 24212016#2 368027901#1 368027901#2 1205192208 24210398 24280903 24010305#0 24010305#1 24010305#2 24010305#3 24010305#4 24010373#0 24010373#1 24010373#2 24010373#3"/>
    </vehicle>
    <vehicle id="62" depart="148.72">
        <route edges="-1103958607 24280721 4597554#0 43950167#0 1009876740 1015672962 24010232 1155893629 1155893628#1 1155893628#2 43950161#0 43950161#2 43950161#3 43950161#4 43950161#5 43950161#6 -318977773#1 -318977773#0 -32647514"/>
    </vehicle>
    <vehicle id="63" depart="151.12">
        <route edges="-200184696 200184697#0 200184697#1 1117753757 1117753755 -46650408#2 -152330551#2 -867818224#8 -867818224#5 -867818224#2 -867818224#1 -867818224#0 -867818231 867818227 -867818228 867818230 -318308310#4 -318308310#3 -318308310#2 -318308310#1 -318308310#0 -322323287 320365733 320368011 320368012 320365728 320365730 -376934403 375567640 320367232#1 375568213 -375568349 375568212 1056492423 375568348 -294063994 28446072 46650412#0 46650412#1"/>
    </vehicle>
    <vehicle id="65" depart="155.91">
        <route edges="-318308310#4 -318308310#3 -318308310#2 -318308310#1 -318308310#0 -322323287 320365733 320368011 320368012 320365728 320365730 -376934403 375567640 320367232#1 375568213 -375568349 375568212 1056492423 1056492426 1056492427 375568548 -294063993#1 -294063993#0 -24010309#8 -24010309#7 -24010309#6 -24010309#5 -24010309#4 -24010309#3 -24010309#2 -24010309#1 -24010309#0"/>
    </vehicle>
    <vehicle id="66" depart="158.31">
        <route edges="409854836#2 -409854836#2 -409854836#1 -409854836#0 306835269#0 306835231#1 499367889#1-AddedOnRampEdge 499367889#1 499367889#1-AddedOffRampEdge"/>
    </vehicle>
    <vehicle id="67" depart="160.71">
        <route edges="-24411731#3 -318256917#2 -318256917#1 -318256917#0 -4597570#2 -4597570#1 368027901#2 -24398533 43956704#1 1150535796#0 1150535796#1 1106175080#1 1106175080#2 1155599747 1106175077#1 1106175077#2 1106175077#3 1106175079 -829372257#1 215063191#0 215063191#1"/>
    </vehicle>
    <vehicle id="68" depart="163.11">
        <route edges="-24010448 -24010305#0 -24280903 24280679 24280729#0 24280729#1 24280729#2 24280729#3 24280721 4597554#0 219206169#0 24280746 24219715#0 499367896#0 499367896#2 499367896#3 499367896#4 200817229#0 24409429#2 532834664#0 475519148#0 475519148#4 475519150#0 475519150#1 475519150#2 28512711"/>
    </vehicle>
    <vehicle id="69" depart="165.51">
        <route edges="28512779 499367887#1 409854837 318305760-AddedOnRampEdge 318305760 318305760-AddedOffRampEdge 4597563#0 1205252233#1 43950174 24280744 499367884#0 43950170#0 24212016#0 24212016#2 368027901#1 368027901#2 1205192208 24210398 24280903 24010305#0 24010305#1 24010305#2 24010305#3 24010305#4 24010305#5 24010305#6 24010317#0 24010317#1 366874227#0 366874227#1 28430767#0 -28430767#2 -28430767#20"/>
    </vehicle>
    <vehicle id="70" depart="167.91">
        <route edges="199889212#0 -199889212#0 -199901322 -379116415 -24411737#0 -24280903 24280679 24280729#0 24280729#1 24280729#2 24280729#3 24280721 4597554#0 219206169#0 24280746 24219715#0 499367896#0 499367896#2 499367896#3 -24280574#1 24280574#0"/>
    </vehicle>
    <vehicle id="71" depart="170.30">
        <route edges="-28531901#0 895030158#3 895030158#4 895030158#5 28531927 28531919 28531978 37717826#0 37717826#1 -38295585 -37619852#2 38295583"/>
    </vehicle>
    <vehicle id="72" depart="172.70">
        <route edges="-829372257#0 829372257#0 829372257#1 1106175081 1155595961#0 1155595961#1 1155595961#2 1155595960 379326784#0 379326664#1 379326666 -43956704#1 -43956704#0 24280729#0 24280729#1 24280729#2 24280729#3 24280721 4597554#0 43950167#0 1009876740 43950166 25900362 1015672964 1015672963#0 1015672963#1 1009877297 37619847#0 -25900012#3 -867818224#5 -28469675#0"/>
    </vehicle>
    <vehicle id="73" depart="175.10">
        <route edges="24010499#2 24010499#3 294063995 375567747 320367232#5 375567745 375567746 320365729 320368008 320368009 320368010 320365732 322323287 -318308318 -43950161#8 -43950161#7 -43950161#6 -43950161#5 -43950161#4 -43950161#3 -43950161#2 -43950161#0 1155893628#3 -24010217#3 28469820#0"/>
    </vehicle>
    <vehicle id="74" depart="177.50">
        <route edges="-28446034#0 -28445978#0 -23101374#4 -23101374#3 -23101374#2 -23101374#1 -23101374#0 320365731 320365728 320368007 320368008 320368009 320368010 320365732 322323287 -318308318 -43950161#8 -43950161#7 -43950161#6 -318975588#0"/>
    </vehicle>
    <vehicle id="75" depart="179.90">
        <route edges="895030158#5 -895030158#5 -895030158#4 -895030158#3 -895030158#2 -525245329 532834699#0 4597527#1 43956724#0 162816785#0 162816785#1 200817228#0 200817228#1 4597577#0 28512590#2 28512604#0 4597577#2 1205252233#1 43950174 24280744 499367884#0 43950170#0 24212016#0 24212016#2 368027901#1 368027901#2 1205192208 24210398 24280903 24010305#0 24010305#1 24010305#2 24010305#3 28439619#0 -28439640#0 28439640#0"/>
    </vehicle>
    <vehicle id="76" depart="182.30">
        <route edges="1009877297 1009876745 1009876743 24310606 25900361 24010232 1009876741 43950169#0 43950170#0 24212016#0 24212016#2 368027901#1 368027901#2 1205192208 24210398 24280903 24010305#0 24010305#1 24010305#2 24010305#3"/>
    </vehicle>
    <vehicle id="77" depart="184.70">
        <route edges="-25907998 4423509 25908000#0 25900010#0 25900010#1 25900012#0 25900012#3 -37619847#1 1009876745 1009876743 24310606 25900361 24010232 1155893629 1155893628#1 1155893628#2 43950161#0 43950161#2 43950161#3 43950161#4 -318975590#0 -28469862 28469820#2 -28469808#1"/>
    </vehicle>
    <vehicle id="78" depart="187.10">
        <route edges="-379116409 -28440668#0 -28440663 -4597575#0 24010305#0 24010305#1 -219206170#2 24429414#0 24429417"/>
    </vehicle>
    <vehicle id="80" depart="191.89">
        <route edges="-24010452#1 24010452#1 28440653#0 -294063993#0 -24010309#8 -24010309#7 -24010309#6 -24010309#5 -24010309#4 -24010309#3 -24010309#2 -24010309#1 -24010309#0 28430852 28438963 -28430864#1 28430864#1"/>
    </vehicle>
    <vehicle id="81" depart="194.29">
        <route edges="-28469850#0 409854846#1 409854846#3 24280721 4597554#0 219206169#0 24280746 24219715#0 24411613#0 499367899-AddedOnRampEdge 499367899 708217603#0 708217603#0-AddedOffRampEdge 708217603#1 708217603#2-AddedOnRampEdge 708217603#2 708217603#2-AddedOffRampEdge 45265468"/>
    </vehicle>
    <vehicle id="82" depart="196.69">
        <route edges="37619852#0 37619850 -37717826#2 -37717826#1 -37717826#0 43956688 165174176#0 366874231#0 366874231#1-AddedOnRampEdge 366874231#1 -43956694 24445115#0 24445115#1 24270112#0 164370494#0 24270111 200184697#0 200184697#1 1117753757 1117753755 -46650408#2 -152330551#2 -867818224#8 -867818224#5 -867818224#2 -867818224#1 -867818224#0 -867818231 867818227 -867818228 867818230 -318308310#4 -318308310#3 -318308310#2 -318308310#1 -318308310#0 -322323287 320365733 320368011 320368012 320365728 320365730 -376934403 375567640 320367232#1 320367232#2 320367232#3 375567748 -294063995 -219206165#1 -219206165#0 24010452#0 24010452#1 -24010452#1"/>
    </vehicle>
    <vehicle id="83" depart="199.09">
        <route edges="-28507537 25900011#6 25900011#7 25900011#8 25900011#9 25900011#10 25900011#11 25900011#12 25900011#13 25900011#14 25900011#15 25900013#1 24219784#2 23523334 52024395#1-AddedOnRampEdge 52024395#1 52024395#1-AddedOffRampEdge 37759107#0 37759107#1-AddedOnRampEdge 37759107#1 499367895-AddedOnRampEdge 499367895 499367895-AddedOffRampEdge 24280627 -1103958607 24212016#0 24212016#2 368027901#1 368027901#2 1205192208 24210398 24280903 24411737#0 24411737#1 24411737#2 28444929"/>
    </vehicle>
    <vehicle id="84" depart="201.49">