<?xml version="1.0" encoding="UTF-8"?>

<!-- generated on 2024-07-30 00:13:04.654191 by randomTrips.py UNKNOWN
<configuration>
    <net-file value="config/osm.net.xml.gz"/>
    <route-file value="config/osm.passenger.trips.xml"/>
    <length value="True"/>
    <end value="10000.0"/>
    <insertion-density value="3.0"/>
</configuration>
-->

<routes xmlns:xsi="http://www.w3.org/2001/XMLSchema-instance" xsi:noNamespaceSchemaLocation="http://sumo.dlr.de/xsd/routes_file.xsd">
    <trip id="0" depart="0.00" from="3908331" to="-154214807#1"/>
    <trip id="1" depart="4.47" from="-4604626#1" to="-4243102"/>
    <trip id="2" depart="8.95" from="4526642" to="4232547#0"/>
    <trip id="3" depart="13.42" from="54489190#0" to="-239083451"/>
    <trip id="4" depart="17.90" from="-E1" to="-158080155#1"/>
    <trip id="5" depart="22.37" from="-4243102" to="202554454#0"/>
    <trip id="6" depart="26.85" from="-157690775#1" to="-4018953#0"/>
    <trip id="7" depart="31.32" from="400780610" to="23210269#0"/>
    <trip id="8" depart="35.79" from="-4243104" to="292128487#0"/>
    <trip id="9" depart="40.27" from="478332036#0" to="-1039209423"/>
    <trip id="10" depart="44.74" from="4720987#0.470" to="4266043"/>
    <trip id="11" depart="49.22" from="-4835699#1" to="-358521171#2"/>
    <trip id="12" depart="53.69" from="E1" to="-4936021#0"/>
    <trip id="13" depart="58.17" from="-265399405#1" to="-265399405#1"/>
    <trip id="14" depart="62.64" from="48398867" to="3017281#0"/>
    <trip id="15" depart="67.11" from="477949267#2" to="4526625#0"/>
    <trip id="16" depart="71.59" from="23103089#1" to="E17"/>
    <trip id="17" depart="76.06" from="-61425755" to="233580774"/>
    <trip id="18" depart="80.54" from="4803057#2" to="358612599"/>
    <trip id="19" depart="85.01" from="4926664" to="25623091#0"/>
    <trip id="20" depart="89.49" from="4345657" to="-224830909#1"/>
    <trip id="21" depart="93.96" from="-4270676" to="-4641047#1"/>
    <trip id="22" depart="98.43" from="-239083451" to="-4270676"/>
    <trip id="23" depart="102.91" from="-270728095" to="-4629640"/>
    <trip id="24" depart="107.38" from="370021202" to="-61333932#3"/>
    <trip id="25" depart="111.86" from="-5229446" to="-41452432"/>
    <trip id="26" depart="116.33" from="-4576242" to="880298117#1"/>
    <trip id="27" depart="120.81" from="4000972#0" to="330066290"/>
    <trip id="28" depart="125.28" from="-3850464" to="4516434#0"/>
    <trip id="29" depart="129.75" from="-363361638#0" to="-765465025"/>
    <trip id="30" depart="134.23" from="E5" to="391280439"/>
    <trip id="31" depart="138.70" from="233580774" to="4243103#0"/>
    <trip id="32" depart="143.18" from="48197370" to="4629738#0"/>
    <trip id="33" depart="147.65" from="-4270676" to="-162145519"/>
    <trip id="34" depart="152.13" from="-478702800#1" to="-4604626#1"/>
    <trip id="35" depart="156.60" from="-4211543" to="927294309#0"/>
    <trip id="36" depart="161.07" from="5014378#0" to="-4791807"/>
    <trip id="37" depart="165.55" from="4018953#1" to="-864157203"/>
    <trip id="38" depart="170.02" from="666743346" to="-E8"/>
    <trip id="39" depart="174.50" from="-4526637" to="-4409713"/>
    <trip id="40" depart="178.97" from="23516221" to="-4592674#1"/>
    <trip id="41" depart="183.45" from="266896477" to="590583580"/>
    <trip id="42" depart="187.92" from="-862085873#1" to="-42350816"/>
    <trip id="43" depart="192.39" from="E8" to="217180783"/>
    <trip id="44" depart="196.87" from="-25627762#3" to="-227604414#1"/>
    <trip id="45" depart="201.34" from="-276269813" to="361255883#0"/>
    <trip id="46" depart="205.82" from="468436968" to="-E10"/>
    <trip id="47" depart="210.29" from="-23268778" to="-765465025"/>
    <trip id="48" depart="214.77" from="E8" to="227604413"/>
    <trip id="49" depart="219.24" from="E17" to="494823373#0"/>
    <trip id="50" depart="223.71" from="-1151494233" to="4478212#1"/>
    <trip id="51" depart="228.19" from="4232547#0" to="23112743"/>
    <trip id="52" depart="232.66" from="-4576242" to="391280439"/>
    <trip id="53" depart="237.14" from="-289904445" to="-E2"/>
    <trip id="54" depart="241.61" from="-E4" to="970976032#0"/>
    <trip id="55" depart="246.09" from="5014378#0" to="-4592674#1"/>
    <trip id="56" depart="250.56" from="157690550" to="-391280439"/>
    <trip id="57" depart="255.03" from="66569426#0" to="5022005#0"/>
    <trip id="58" depart="259.51" from="-4641047#1" to="391280439"/>
    <trip id="59" depart="263.98" from="3017281#0" to="-338672406#2"/>
    <trip id="60" depart="268.46" from="4627398#6" to="23143564"/>
    <trip id="61" depart="272.93" from="4629738#0" to="227749742#0"/>
    <trip id="62" depart="277.41" from="-1035968701#2" to="-481282493"/>
    <trip id="63" depart="281.88" from="-123564625#0" to="852470598"/>
    <trip id="64" depart="286.35" from="5024413" to="481282492"/>
    <trip id="65" depart="290.83" from="-4720987#0" to="-23165842#0"/>
    <trip id="66" depart="295.30" from="5014378#0" to="935027705"/>
    <trip id="67" depart="299.78" from="-24343421#3" to="154214807#0"/>
    <trip id="68" depart="304.25" from="-23681643#2" to="4627392"/>
    <trip id="69" depart="308.73" from="4628747#0" to="-292128480#1"/>
    <trip id="70" depart="313.20" from="1228880049" to="232201799"/>
    <trip id="71" depart="317.67" from="-4526637" to="5024413"/>
    <trip id="72" depart="322.15" from="-E1" to="-419698160"/>
    <trip id="73" depart="326.62" from="23112743" to="4526625#0"/>
    <trip id="74" depart="331.10" from="-4073134#1" to="-478728619"/>
    <trip id="75" depart="335.57" from="E7" to="4018953#1"/>
    <trip id="76" depart="340.05" from="-E17" to="221887459"/>
    <trip id="77" depart="344.52" from="-29319973" to="-4243102"/>
    <trip id="78" depart="348.99" from="-4827320" to="29056910#1"/>
    <trip id="79" depart="353.47" from="-4270676" to="-4242654"/>
    <trip id="80" depart="357.94" from="-23681643#2" to="368003201"/>
    <trip id="81" depart="362.42" from="-4270676" to="617713589"/>
    <trip id="82" depart="366.89" from="4892123#2" to="-23268778"/>
    <trip id="83" depart="371.37" from="-4404978#1" to="4211541#0"/>
    <trip id="84" depart="375.84" from="-4235348#1" to="-2955714#2"/>
    <trip id="85" depart="380.31" from="852470598" to="242776021#0"/>
    <trip id="86" depart="384.79" from="1202586596#0" to="4641047#1"/>
    <trip id="87" depart="389.26" from="477949267#2" to="-396922879"/>
    <trip id="88" depart="393.74" from="-265399407#2" to="-E17"/>
    <trip id="89" depart="398.21" from="-E10" to="112789656#0"/>
    <trip id="90" depart="402.69" from="4526625#0" to="4211547"/>
    <trip id="91" depart="407.16" from="E3" to="-265399405#1"/>
    <trip id="92" depart="411.63" from="-864157203" to="-4946444"/>
    <trip id="93" depart="416.11" from="4926664" to="-447012833"/>
    <trip id="94" depart="420.58" from="-400988343#1" to="-E4"/>
    <trip id="95" depart="425.06" from="-E1" to="-4629640"/>
    <trip id="96" depart="429.53" from="-448306613#1" to="807148180"/>
    <trip id="97" depart="434.01" from="-E2" to="4967143#0"/>
    <trip id="98" depart="438.48" from="232201798" to="-227749740#2"/>
    <trip id="99" depart="442.95" from="E8" to="481454554"/>
    <trip id="100" depart="447.43" from="E16" to="817595392#0"/>
    <trip id="101" depart="451.90" from="4871756#0" to="-361256970"/>
    <trip id="102" depart="456.38" from="132911042#0" to="-4211541#0"/>
    <trip id="103" depart="460.85" from="-864157203" to="-23165842#0"/>
    <trip id="104" depart="465.33" from="-6174897" to="E3"/>
    <trip id="105" depart="469.80" from="-4526644#1" to="4641047#1"/>
    <trip id="106" depart="474.27" from="-E5" to="-E10"/>
    <trip id="107" depart="478.75" from="E1" to="E7"/>
    <trip id="108" depart="483.22" from="233088602" to="4432723"/>
    <trip id="109" depart="487.70" from="-359233623" to="-4702121#1"/>
    <trip id="110" depart="492.17" from="E16" to="25623091#0"/>
    <trip id="111" depart="496.65" from="23126671" to="4604619#0"/>
    <trip id="112" depart="501.12" from="-232201798" to="28497046#0"/>
    <trip id="113" depart="505.59" from="158080155#0" to="4892123#2"/>
    <trip id="114" depart="510.07" from="-359233623" to="E1.776"/>
    <trip id="115" depart="514.54" from="-239083451" to="-394854858#1"/>
    <trip id="116" depart="519.02" from="2954058" to="42178343#0"/>
    <trip id="117" depart="523.49" from="-4388379#2" to="-289904445"/>
    <trip id="118" depart="527.97" from="5229446" to="-4404997#3"/>
    <trip id="119" depart="532.44" from="2954058" to="358612599"/>
    <trip id="120" depart="536.91" from="-970453669" to="28173136"/>
    <trip id="121" depart="541.39" from="224011562" to="875806059"/>
    <trip id="122" depart="545.86" from="-416095358#1" to="44105508#0"/>
    <trip id="123" depart="550.34" from="-4404978#1" to="-864157203"/>
    <trip id="124" depart="554.81" from="4211541#1" to="-478332036#1"/>
    <trip id="125" depart="559.29" from="-478702807" to="4604626#0"/>
    <trip id="126" depart="563.76" from="-23681643#2" to="-E8"/>
    <trip id="127" depart="568.23" from="E8" to="E8"/>
    <trip id="128" depart="572.71" from="-23681872" to="-4211541#0"/>
    <trip id="129" depart="577.18" from="-4526644#1" to="874949735"/>
    <trip id="130" depart="581.66" from="5036903" to="5144707"/>
    <trip id="131" depart="586.13" from="-5229446" to="-358612595"/>
    <trip id="132" depart="590.61" from="481282492" to="43320003"/>
    <trip id="133" depart="595.08" from="31252671" to="E4"/>
    <trip id="134" depart="599.55" from="4018953#1" to="-1039214428"/>
    <trip id="135" depart="604.03" from="478728617#1" to="-478138588#1"/>
    <trip id="136" depart="608.50" from="409802674#0" to="88760448#1"/>
    <trip id="137" depart="612.98" from="-314148817" to="-276124816"/>
    <trip id="138" depart="617.45" from="-276124816" to="233580774"/>
    <trip id="139" depart="621.93" from="-4604619#3" to="3017281#0"/>
    <trip id="140" depart="626.40" from="4432723" to="-405737746"/>
    <trip id="141" depart="630.87" from="368003202" to="-4604619#3"/>
    <trip id="142" depart="635.35" from="154214807#0" to="617713589"/>
    <trip id="143" depart="639.82" from="4835699#0" to="-25515149"/>
    <trip id="144" depart="644.30" from="-E10" to="-4629637"/>
    <trip id="145" depart="648.77" from="-1039209423" to="4629640"/>
    <trip id="146" depart="653.25" from="3849560#0" to="-4526637"/>
    <trip id="147" depart="657.72" from="4604624#0" to="233032038#0"/>
    <trip id="148" depart="662.19" from="-E100" to="-1086227026"/>
    <trip id="149" depart="666.67" from="-238986996#2" to="516487638"/>
    <trip id="150" depart="671.14" from="61722765" to="232201798"/>
    <trip id="151" depart="675.62" from="481282492" to="265399408"/>
    <trip id="152" depart="680.09" from="-358521171#2" to="-29056910#2"/>
    <trip id="153" depart="684.57" from="-4720987#0" to="590583580"/>
    <trip id="154" depart="689.04" from="4693008#0" to="494823373#0"/>
    <trip id="155" depart="693.51" from="590583580" to="-416095358#1"/>
    <trip id="156" depart="697.99" from="-448306613#1" to="-265401002"/>
    <trip id="157" depart="702.46" from="4640978" to="5196657"/>
    <trip id="158" depart="706.94" from="-906639539#1" to="358613490"/>
    <trip id="159" depart="711.41" from="-359233623" to="852470598"/>
    <trip id="160" depart="715.89" from="4946444" to="E2"/>
    <trip id="161" depart="720.36" from="478387586" to="516487638"/>
    <trip id="162" depart="724.83" from="-157687428#2" to="4526642"/>
    <trip id="163" depart="729.31" from="-481282493" to="862085872#2"/>
    <trip id="164" depart="733.78" from="4720987#0" to="4989509"/>
    <trip id="165" depart="738.26" from="478387586" to="-4604624#1"/>
    <trip id="166" depart="742.73" from="467564194" to="-265401008"/>
    <trip id="167" depart="747.21" from="4997984" to="4946444"/>
    <trip id="168" depart="751.68" from="-4252299#1" to="4793800#0"/>
    <trip id="169" depart="756.15" from="-E7" to="-478693366"/>
    <trip id="170" depart="760.63" from="4693007" to="-4252299#1"/>
    <trip id="171" depart="765.10" from="-157687428#2" to="-4000972#1"/>
    <trip id="172" depart="769.58" from="-4801255" to="4989509"/>
    <trip id="173" depart="774.05" from="E12" to="-4629640"/>
    <trip id="174" depart="778.53" from="391280439" to="-88760448#0"/>
    <trip id="175" depart="783.00" from="E3" to="23112743"/>
    <trip id="176" depart="787.47" from="862085872#2" to="-276124816"/>
    <trip id="177" depart="791.95" from="E17" to="-391280439"/>
    <trip id="178" depart="796.42" from="E1.776" to="-4604619#3"/>
    <trip id="179" depart="800.90" from="-276269812" to="-E17"/>
    <trip id="180" depart="805.37" from="4526625#0" to="-478819319#1"/>
    <trip id="181" depart="809.85" from="3017271" to="217180783"/>
    <trip id="182" depart="814.32" from="-674349403#1" to="250578973#0"/>
    <trip id="183" depart="818.79" from="-4487542#1" to="4374874#2"/>
    <trip id="184" depart="823.27" from="-1039209419#1" to="807148182"/>
    <trip id="185" depart="827.74" from="23112733" to="4435845#0"/>
    <trip id="186" depart="832.22" from="4604626#0" to="4211541#1"/>
    <trip id="187" depart="836.69" from="-5048694" to="-23268778"/>
    <trip id="188" depart="841.17" from="409802674#0" to="-4827983"/>
    <trip id="189" depart="845.64" from="-478693366" to="487215981"/>
    <trip id="190" depart="850.11" from="4478212#1" to="-478332036#1"/>
    <trip id="191" depart="854.59" from="-478332036#1" to="-914457913"/>
    <trip id="192" depart="859.06" from="-864157203" to="-4693007"/>
    <trip id="193" depart="863.54" from="-2955714#2" to="-E10"/>
    <trip id="194" depart="868.01" from="87364508#0" to="4232547#0"/>
    <trip id="195" depart="872.49" from="5916709" to="358612595"/>
    <trip id="196" depart="876.96" from="-467564194" to="232201798.288"/>
    <trip id="197" depart="881.43" from="-1035968701#2" to="-4641047#0"/>
    <trip id="198" depart="885.91" from="-E11" to="25623091#0"/>
    <trip id="199" depart="890.38" from="4018953#1" to="1104605979#1"/>
    <trip id="200" depart="894.86" from="-E2" to="-4211541#0"/>
    <trip id="201" depart="899.33" from="1205351531" to="61722765"/>
    <trip id="202" depart="903.81" from="4693008#0" to="-363361638#0"/>
    <trip id="203" depart="908.28" from="-24343421#3" to="220119102"/>
    <trip id="204" depart="912.75" from="368003202" to="-4892132"/>
    <trip id="205" depart="917.23" from="4791797" to="4604626#0"/>
    <trip id="206" depart="921.70" from="4211543" to="-4243102"/>
    <trip id="207" depart="926.18" from="-4071161#2" to="-154214807#1"/>
    <trip id="208" depart="930.65" from="-4404997#3" to="129834120#0"/>
    <trip id="209" depart="935.13" from="4871766#0" to="-23614654#5"/>
    <trip id="210" depart="939.60" from="-94154548#1" to="361255883#0"/>
    <trip id="211" depart="944.07" from="-4018954" to="4262029"/>
    <trip id="212" depart="948.55" from="157689843" to="-4404997#3"/>
    <trip id="213" depart="953.02" from="4018953#1" to="-1039209421#1"/>
    <trip id="214" depart="957.50" from="4627378" to="4629640"/>
    <trip id="215" depart="961.97" from="-276124816" to="-E11"/>
    <trip id="216" depart="966.45" from="-391280439" to="E1"/>
    <trip id="217" depart="970.92" from="220119102" to="-227749740#2"/>
    <trip id="218" depart="975.39" from="-448306613#1" to="487215984"/>
    <trip id="219" depart="979.87" from="-E5" to="4720987#0.470"/>
    <trip id="220" depart="984.34" from="416095358#2" to="E4"/>
    <trip id="221" depart="988.82" from="2956313#0" to="970453666#0"/>
    <trip id="222" depart="993.29" from="5229446" to="33748379#0"/>
    <trip id="223" depart="997.77" from="4478212#0" to="202554454#0"/>
    <trip id="224" depart="1002.24" from="4803057#2" to="232201798.288"/>
    <trip id="225" depart="1006.71" from="5777004" to="4604609"/>
    <trip id="226" depart="1011.19" from="1222942634#0" to="-4526636#2"/>
    <trip id="227" depart="1015.66" from="-447012833" to="3908329"/>
    <trip id="228" depart="1020.14" from="4628747#0" to="224011563"/>
    <trip id="229" depart="1024.61" from="358613490" to="-4627398#2"/>
    <trip id="230" depart="1029.09" from="-238986996#2" to="-4641047#0"/>
    <trip id="231" depart="1033.56" from="-4604619#3" to="-4801255"/>
    <trip id="232" depart="1038.03" from="23112743" to="-3017260"/>
    <trip id="233" depart="1042.51" from="-4287791" to="4252304"/>
    <trip id="234" depart="1046.98" from="434919033" to="-23186618#1"/>
    <trip id="235" depart="1051.46" from="-906639539#1" to="23186963#0"/>
    <trip id="236" depart="1055.93" from="-94154548#1" to="-4073134#1"/>
    <trip id="237" depart="1060.41" from="-970455621" to="617713589"/>
    <trip id="238" depart="1064.88" from="265399408" to="4252304"/>
    <trip id="239" depart="1069.35" from="487215985" to="4627398#6"/>
    <trip id="240" depart="1073.83" from="-617713589" to="-1039209423"/>
    <trip id="241" depart="1078.30" from="-4971811" to="4627378"/>
    <trip id="242" depart="1082.78" from="487215981" to="970453668"/>
    <trip id="243" depart="1087.25" from="-970453669" to="4604619#0"/>
    <trip id="244" depart="1091.73" from="23186618#0" to="3017281#0"/>
    <trip id="245" depart="1096.20" from="-4243104" to="-42350816"/>
    <trip id="246" depart="1100.67" from="-E17" to="-157690775#1"/>
    <trip id="247" depart="1105.15" from="-481454553" to="4235347"/>
    <trip id="248" depart="1109.62" from="-880298117#1" to="-360158535#3"/>
    <trip id="249" depart="1114.10" from="1039209421#0" to="-29056910#2"/>
    <trip id="250" depart="1118.57" from="358612599" to="-157687428#2"/>
    <trip id="251" depart="1123.05" from="-765465025" to="238986996#0"/>
    <trip id="252" depart="1127.52" from="-158080155#1" to="394854858#0"/>
    <trip id="253" depart="1131.99" from="-314148817" to="1039209421#0"/>
    <trip id="254" depart="1136.47" from="-23106269#0" to="-75723584#1"/>
    <trip id="255" depart="1140.94" from="-4211547" to="-481454553"/>
    <trip id="256" depart="1145.42" from="4627398#6" to="-75723584#1"/>
    <trip id="257" depart="1149.89" from="4627379" to="481282494#0"/>
    <trip id="258" depart="1154.37" from="-4487516#1" to="-238986996#2"/>
    <trip id="259" depart="1158.84" from="-123564625#0" to="23143564"/>
    <trip id="260" depart="1163.31" from="E9" to="-5036493"/>
    <trip id="261" depart="1167.79" from="400780610" to="4641047#0"/>
    <trip id="262" depart="1172.26" from="4018945#0" to="4627378"/>
    <trip id="263" depart="1176.74" from="935027705" to="-4018953#0"/>
    <trip id="264" depart="1181.21" from="-1267512463#1" to="-33748379#1"/>
    <trip id="265" depart="1185.69" from="-2955714#2" to="4211541#0"/>
    <trip id="266" depart="1190.16" from="23744806" to="-4211547"/>
    <trip id="267" depart="1194.63" from="4287783" to="4627398#6"/>
    <trip id="268" depart="1199.11" from="-370021205" to="31252671"/>
    <trip id="269" depart="1203.58" from="4627377" to="-276124816"/>
    <trip id="270" depart="1208.06" from="4791798" to="E11"/>
    <trip id="271" depart="1212.53" from="-276269812" to="-156258374#1"/>
    <trip id="272" depart="1217.01" from="-478693366" to="4232547#0"/>
    <trip id="273" depart="1221.48" from="E1" to="-864157203"/>
    <trip id="274" depart="1225.95" from="44105508#0" to="-23681643#2"/>
    <trip id="275" depart="1230.43" from="4246876" to="361255883#0"/>
    <trip id="276" depart="1234.90" from="-270728095" to="4629641"/>
    <trip id="277" depart="1239.38" from="4871773#0" to="2956325#0"/>
    <trip id="278" depart="1243.85" from="-29319973" to="E3"/>
    <trip id="279" depart="1248.33" from="4641047#0" to="-5003268"/>
    <trip id="280" depart="1252.80" from="-E100" to="-617713589"/>
    <trip id="281" depart="1257.27" from="187007954#0" to="-4967143#1"/>
    <trip id="282" depart="1261.75" from="4871766#0" to="4803057#2"/>
    <trip id="283" depart="1266.22" from="-276124816" to="E1.776"/>
    <trip id="284" depart="1270.70" from="370021202" to="4803058"/>
    <trip id="285" depart="1275.17" from="4374874#0" to="-E2"/>
    <trip id="286" depart="1279.65" from="4526637" to="E12"/>
    <trip id="287" depart="1284.12" from="-4604616" to="478664899#0"/>
    <trip id="288" depart="1288.59" from="23112733" to="132911042#0"/>
    <trip id="289" depart="1293.07" from="-E17" to="4526625#0"/>
    <trip id="290" depart="1297.54" from="-4592674#1" to="4892123#0"/>
    <trip id="291" depart="1302.02" from="4803058" to="-239083451"/>
    <trip id="292" depart="1306.49" from="5036921#1" to="-4404997#3"/>
    <trip id="293" depart="1310.97" from="-E8" to="330066290"/>
    <trip id="294" depart="1315.44" from="-6174897" to="-157690775#0"/>
    <trip id="295" depart="1319.91" from="4871782" to="-391280439.565"/>
    <trip id="296" depart="1324.39" from="-4211547" to="4702121#0"/>
    <trip id="297" depart="1328.86" from="-4835828" to="516487638"/>
    <trip id="298" depart="1333.34" from="43320003" to="-4629637"/>
    <trip id="299" depart="1337.81" from="-112786021" to="935027705"/>
    <trip id="300" depart="1342.29" from="-24343421#3" to="4435845#0"/>
    <trip id="301" depart="1346.76" from="154214807#0" to="4627382"/>
    <trip id="302" depart="1351.23" from="4246876" to="400509604#0"/>
    <trip id="303" depart="1355.71" from="156258374#0" to="468436968"/>
    <trip id="304" depart="1360.18" from="-265399405#1" to="-4242656#1"/>
    <trip id="305" depart="1364.66" from="4252299#0" to="-478702800#1"/>
    <trip id="306" depart="1369.13" from="24797348#0" to="129834120#0"/>
    <trip id="307" depart="1373.61" from="227604413" to="-E11"/>
    <trip id="308" depart="1378.08" from="4627377" to="-4835699#1"/>
    <trip id="309" depart="1382.55" from="43320003" to="-4627382"/>
    <trip id="310" depart="1387.03" from="-4487516#1" to="-289904445"/>
    <trip id="311" depart="1391.50" from="-4018953#0" to="-289904445"/>
    <trip id="312" depart="1395.98" from="23103089#0" to="4627398#0"/>
    <trip id="313" depart="1400.45" from="-396922880" to="-4211543"/>
    <trip id="314" depart="1404.93" from="132858610" to="4487516#0"/>
    <trip id="315" depart="1409.40" from="E2" to="22464709"/>
    <trip id="316" depart="1413.87" from="-4627398#5" to="-265399407#2"/>
    <trip id="317" depart="1418.35" from="-4018954" to="-4252299#1"/>
    <trip id="318" depart="1422.82" from="-392826636" to="-112786021"/>
    <trip id="319" depart="1427.30" from="228344576" to="-4627398#2"/>
    <trip id="320" depart="1431.77" from="E17" to="233580774"/>
    <trip id="321" depart="1436.25" from="4265014#0" to="-29056910#2"/>
    <trip id="322" depart="1440.72" from="4989509" to="157687428#0"/>
    <trip id="323" depart="1445.19" from="4997984" to="24704314"/>
    <trip id="324" depart="1449.67" from="1104605978" to="-E3"/>
    <trip id="325" depart="1454.14" from="-396922879" to="-227749740#2"/>
    <trip id="326" depart="1458.62" from="88760448#1" to="131429436"/>
    <trip id="327" depart="1463.09" from="4793802#0" to="-906639539#1"/>
    <trip id="328" depart="1467.57" from="-23879656" to="361255883#0"/>
    <trip id="329" depart="1472.04" from="-23165842#0" to="-33492304"/>
    <trip id="330" depart="1476.51" from="23744806" to="-478693366"/>
    <trip id="331" depart="1480.99" from="E6" to="-276269813"/>
    <trip id="332" depart="1485.46" from="4628747#0" to="31252671"/>
    <trip id="333" depart="1489.94" from="468436968" to="-4243203"/>
    <trip id="334" depart="1494.41" from="224011562" to="-E5"/>
    <trip id="335" depart="1498.89" from="-E2" to="4946444"/>
    <trip id="336" depart="1503.36" from="E5" to="-478693366"/>
    <trip id="337" depart="1507.83" from="358612595" to="330066290"/>
    <trip id="338" depart="1512.31" from="4604619#0" to="935027705"/>
    <trip id="339" depart="1516.78" from="-4211541#0" to="-416095358#1"/>
    <trip id="340" depart="1521.26" from="4066699#0" to="-358612595"/>
    <trip id="341" depart="1525.73" from="-3908331" to="-23614654#5"/>
    <trip id="342" depart="1530.21" from="-1039209423" to="-E5"/>
    <trip id="343" depart="1534.68" from="29400477" to="-467563940"/>
    <trip id="344" depart="1539.15" from="-4287791" to="4345657"/>
    <trip id="345" depart="1543.63" from="43320003" to="-E6"/>
    <trip id="346" depart="1548.10" from="4243103#0" to="807148180"/>
    <trip id="347" depart="1552.58" from="467564194" to="359233623"/>
    <trip id="348" depart="1557.05" from="4073114#2" to="874949735"/>
    <trip id="349" depart="1561.53" from="-E10" to="23186963#1"/>
    <trip id="350" depart="1566.00" from="4000972#0" to="622459373"/>
    <trip id="351" depart="1570.47" from="4803057#2" to="-23268778"/>
    <trip id="352" depart="1574.95" from="-370021202" to="-478728617#0"/>
    <trip id="353" depart="1579.42" from="4627378" to="239083442"/>
    <trip id="354" depart="1583.90" from="-4629641" to="-29056910#2"/>
    <trip id="355" depart="1588.37" from="4243103#0" to="4287783"/>
    <trip id="356" depart="1592.85" from="88760448#1" to="158080155#0"/>
    <trip id="357" depart="1597.32" from="157687428#0" to="-23681872"/>
    <trip id="358" depart="1601.79" from="-224011562" to="-E17"/>
    <trip id="359" depart="1606.27" from="-478729207" to="-448306613#1"/>
    <trip id="360" depart="1610.74" from="-25627762#3" to="E10"/>
    <trip id="361" depart="1615.22" from="481282494#0" to="24704314"/>
    <trip id="362" depart="1619.69" from="964095500" to="E9"/>
    <trip id="363" depart="1624.17" from="4211541#1" to="-4627379"/>
    <trip id="364" depart="1628.64" from="-224011562" to="4627379"/>
    <trip id="365" depart="1633.11" from="1104605979#1" to="4018953#1"/>
    <trip id="366" depart="1637.59" from="69403899#0" to="-391280439.565"/>
    <trip id="367" depart="1642.06" from="28173136" to="370021204#0"/>
    <trip id="368" depart="1646.54" from="157687428#0" to="-24797343"/>
    <trip id="369" depart="1651.01" from="-4946444" to="-487215983"/>
    <trip id="370" depart="1655.49" from="4211277#0" to="4936477#0"/>
    <trip id="371" depart="1659.96" from="-481282493" to="4252304"/>
    <trip id="372" depart="1664.43" from="-4629640" to="935027705"/>
    <trip id="373" depart="1668.91" from="478693370" to="232209884"/>
    <trip id="374" depart="1673.38" from="-E5" to="-4791806#1"/>
    <trip id="375" depart="1677.86" from="-478819319#1" to="E17"/>
    <trip id="376" depart="1682.33" from="-880298117#1" to="219431655"/>
    <trip id="377" depart="1686.81" from="E4" to="4071161#0"/>
    <trip id="378" depart="1691.28" from="23126671" to="-970453669"/>
    <trip id="379" depart="1695.76" from="-4000972#1" to="-5777004"/>
    <trip id="380" depart="1700.23" from="4627392" to="359233623"/>
    <trip id="381" depart="1704.70" from="4627398#5" to="-405737746"/>
    <trip id="382" depart="1709.18" from="232181901" to="83627145"/>
    <trip id="383" depart="1713.65" from="-E17" to="4266043"/>
    <trip id="384" depart="1718.13" from="-29319973" to="E17"/>
    <trip id="385" depart="1722.60" from="3017281#0" to="-4404978#1"/>
    <trip id="386" depart="1727.08" from="-360158535#3" to="232209884"/>
    <trip id="387" depart="1731.55" from="232201798.288" to="-25515149"/>
    <trip id="388" depart="1736.02" from="E6" to="666743346"/>
    <trip id="389" depart="1740.50" from="-E8" to="-276269813"/>
    <trip id="390" depart="1744.97" from="4803058" to="157690550"/>
    <trip id="391" depart="1749.45" from="4417442#0" to="217180781#0"/>
    <trip id="392" depart="1753.92" from="-4604619#3" to="481454554"/>
    <trip id="393" depart="1758.40" from="E3" to="-4404997#3"/>
    <trip id="394" depart="1762.87" from="232201798.288" to="-83627145"/>
    <trip id="395" depart="1767.34" from="799316112" to="208356734"/>
    <trip id="396" depart="1771.82" from="5024413" to="4989509"/>
    <trip id="397" depart="1776.29" from="-4626645" to="468436968"/>
    <trip id="398" depart="1780.77" from="-94154548#1" to="874949735"/>
    <trip id="399" depart="1785.24" from="202554454#0" to="4801255"/>
    <trip id="400" depart="1789.72" from="-4627398#2" to="-4720987#0"/>
    <trip id="401" depart="1794.19" from="29056910#1" to="E8"/>
    <trip id="402" depart="1798.66" from="154214826" to="-33492304"/>
    <trip id="403" depart="1803.14" from="23112743" to="-5001383#3"/>
    <trip id="404" depart="1807.61" from="232201798.288" to="23186963#1"/>
    <trip id="405" depart="1812.09" from="-E5" to="-481282493"/>
    <trip id="406" depart="1816.56" from="-400780606" to="4265013"/>
    <trip id="407" depart="1821.04" from="239083442" to="-4270676"/>
    <trip id="408" depart="1825.51" from="4629641.347" to="-224011563"/>
    <trip id="409" depart="1829.98" from="4627377" to="4345657"/>
    <trip id="410" depart="1834.46" from="478664899#0" to="-845006922#2"/>
    <trip id="411" depart="1838.93" from="409802674#0" to="4801255"/>
    <trip id="412" depart="1843.41" from="E3" to="157689843"/>
    <trip id="413" depart="1847.88" from="-218074604" to="171768925"/>
    <trip id="414" depart="1852.36" from="29056910#1" to="5022005#0"/>
    <trip id="415" depart="1856.83" from="5001411" to="-E2"/>
    <trip id="416" depart="1861.30" from="224011563.475" to="-E8"/>
    <trip id="417" depart="1865.78" from="4487516#0" to="-914457913"/>
    <trip id="418" depart="1870.25" from="4018953#1" to="-358521171#2"/>
    <trip id="419" depart="1874.73" from="1104605978" to="E16"/>
    <trip id="420" depart="1879.20" from="-4827983" to="4252304"/>
    <trip id="421" depart="1883.68" from="400780610" to="4892123#2"/>
    <trip id="422" depart="1888.15" from="487215981" to="4946444"/>
    <trip id="423" depart="1892.62" from="-6174919" to="-4793800#1"/>
    <trip id="424" depart="1897.10" from="4435845#0" to="4627382"/>
    <trip id="425" depart="1901.57" from="4997984" to="-202554454#2"/>
    <trip id="426" depart="1906.05" from="-23681643#2" to="368003201"/>
    <trip id="427" depart="1910.52" from="7335526820" to="E8"/>
    <trip id="428" depart="1915.00" from="4627377" to="-E17"/>