<?xml version="1.0" encoding="UTF-8"?>

<!-- generated on 2024-08-20 19:05:45.545475 by randomTrips.py UNKNOWN
<configuration>
    <net-file value="config/osm.net.xml.gz"/>
    <route-file value="config/osm.passenger.trips.xml"/>
    <length value="True"/>
    <end value="800.0"/>
    <insertion-density value="1.5"/>
</configuration>
-->

<routes xmlns:xsi="http://www.w3.org/2001/XMLSchema-instance" xsi:noNamespaceSchemaLocation="http://sumo.dlr.de/xsd/routes_file.xsd">
    <trip id="0" depart="0.00" from="3908331" to="-154214807#1"/>
    <trip id="1" depart="8.95" from="-4604626#1" to="-4243102"/>
    <trip id="2" depart="17.90" from="4526642" to="4232547#0"/>
    <trip id="3" depart="26.85" from="54489190#0" to="-239083451"/>
    <trip id="4" depart="35.79" from="-E1" to="-158080155#1"/>
    <trip id="5" depart="44.74" from="-4243102" to="202554454#0"/>
    <trip id="6" depart="53.69" from="-157690775#1" to="-4018953#0"/>
    <trip id="7" depart="62.64" from="400780610" to="23210269#0"/>
    <trip id="8" depart="71.59" from="-4243104" to="292128487#0"/>
    <trip id="9" depart="80.54" from="478332036#0" to="-1039209423"/>
    <trip id="10" depart="89.49" from="4720987#0.470" to="4266043"/>
    <trip id="11" depart="98.43" from="-4835699#1" to="-358521171#2"/>
    <trip id="12" depart="107.38" from="E1" to="-4936021#0"/>
    <trip id="13" depart="116.33" from="-265399405#1" to="-265399405#1"/>
    <trip id="14" depart="125.28" from="48398867" to="3017281#0"/>
    <trip id="15" depart="134.23" from="477949267#2" to="4526625#0"/>
    <trip id="16" depart="143.18" from="23103089#1" to="E17"/>
    <trip id="17" depart="152.13" from="-61425755" to="233580774"/>
    <trip id="18" depart="161.07" from="4803057#2" to="358612599"/>
    <trip id="19" depart="170.02" from="4926664" to="25623091#0"/>
    <trip id="20" depart="178.97" from="4345657" to="-224830909#1"/>
    <trip id="21" depart="187.92" from="-4270676" to="-4641047#1"/>
    <trip id="22" depart="196.87" from="-239083451" to="-4270676"/>
    <trip id="23" depart="205.82" from="-270728095" to="-4629640"/>
    <trip id="24" depart="214.77" from="370021202" to="-61333932#3"/>
    <trip id="25" depart="223.71" from="-5229446" to="-41452432"/>
    <trip id="26" depart="232.66" from="-4576242" to="880298117#1"/>
    <trip id="27" depart="241.61" from="4000972#0" to="330066290"/>
    <trip id="28" depart="250.56" from="-3850464" to="4516434#0"/>
    <trip id="29" depart="259.51" from="-363361638#0" to="-765465025"/>
    <trip id="30" depart="268.46" from="E5" to="391280439"/>
    <trip id="31" depart="277.41" from="233580774" to="4243103#0"/>
    <trip id="32" depart="286.35" from="48197370" to="4629738#0"/>
    <trip id="33" depart="295.30" from="-4270676" to="-162145519"/>
    <trip id="34" depart="304.25" from="-478702800#1" to="-4604626#1"/>
    <trip id="35" depart="313.20" from="-4211543" to="927294309#0"/>
    <trip id="36" depart="322.15" from="5014378#0" to="-4791807"/>
    <trip id="37" depart="331.10" from="4018953#1" to="-864157203"/>
    <trip id="38" depart="340.05" from="666743346" to="-E8"/>
    <trip id="39" depart="348.99" from="-4526637" to="-4409713"/>
    <trip id="40" depart="357.94" from="23516221" to="-4592674#1"/>
    <trip id="41" depart="366.89" from="266896477" to="590583580"/>
    <trip id="42" depart="375.84" from="-862085873#1" to="-42350816"/>
    <trip id="43" depart="384.79" from="E8" to="217180783"/>
    <trip id="44" depart="393.74" from="-25627762#3" to="-227604414#1"/>
    <trip id="45" depart="402.69" from="-276269813" to="361255883#0"/>
    <trip id="46" depart="411.63" from="468436968" to="-E10"/>
    <trip id="47" depart="420.58" from="-23268778" to="-765465025"/>
    <trip id="48" depart="429.53" from="E8" to="227604413"/>
    <trip id="49" depart="438.48" from="E17" to="494823373#0"/>
    <trip id="50" depart="447.43" from="-1151494233" to="4478212#1"/>
    <trip id="51" depart="456.38" from="4232547#0" to="23112743"/>
    <trip id="52" depart="465.33" from="-4576242" to="391280439"/>
    <trip id="53" depart="474.27" from="-289904445" to="-E2"/>
    <trip id="54" depart="483.22" from="-E4" to="970976032#0"/>
    <trip id="55" depart="492.17" from="5014378#0" to="-4592674#1"/>
    <trip id="56" depart="501.12" from="157690550" to="-391280439"/>
    <trip id="57" depart="510.07" from="66569426#0" to="5022005#0"/>
    <trip id="58" depart="519.02" from="-4641047#1" to="391280439"/>
    <trip id="59" depart="527.97" from="3017281#0" to="-338672406#2"/>
    <trip id="60" depart="536.91" from="4627398#6" to="23143564"/>
    <trip id="61" depart="545.86" from="4629738#0" to="227749742#0"/>
    <trip id="62" depart="554.81" from="-1035968701#2" to="-481282493"/>
    <trip id="63" depart="563.76" from="-123564625#0" to="852470598"/>
    <trip id="64" depart="572.71" from="5024413" to="481282492"/>
    <trip id="65" depart="581.66" from="-4720987#0" to="-23165842#0"/>
    <trip id="66" depart="590.61" from="5014378#0" to="935027705"/>
    <trip id="67" depart="599.55" from="-24343421#3" to="154214807#0"/>
    <trip id="68" depart="608.50" from="-23681643#2" to="4627392"/>
    <trip id="69" depart="617.45" from="4628747#0" to="-292128480#1"/>
    <trip id="70" depart="626.40" from="1228880049" to="232201799"/>
    <trip id="71" depart="635.35" from="-4526637" to="5024413"/>
    <trip id="72" depart="644.30" from="-E1" to="-419698160"/>
    <trip id="73" depart="653.25" from="23112743" to="4526625#0"/>
    <trip id="74" depart="662.19" from="-4073134#1" to="-478728619"/>
    <trip id="75" depart="671.14" from="E7" to="4018953#1"/>
    <trip id="76" depart="680.09" from="-E17" to="221887459"/>
    <trip id="77" depart="689.04" from="-29319973" to="-4243102"/>
    <trip id="78" depart="697.99" from="-4827320" to="29056910#1"/>
    <trip id="79" depart="706.94" from="-4270676" to="-4242654"/>
    <trip id="80" depart="715.89" from="-23681643#2" to="368003201"/>
    <trip id="81" depart="724.83" from="-4270676" to="617713589"/>
    <trip id="82" depart="733.78" from="4892123#2" to="-23268778"/>
    <trip id="83" depart="742.73" from="-4404978#1" to="4211541#0"/>
    <trip id="84" depart="751.68" from="-4235348#1" to="-2955714#2"/>
    <trip id="85" depart="760.63" from="852470598" to="242776021#0"/>
    <trip id="86" depart="769.58" from="1202586596#0" to="4641047#1"/>
    <trip id="87" depart="778.53" from="477949267#2" to="-396922879"/>
    <trip id="88" depart="787.47" from="-265399407#2" to="-E17"/>
    <trip id="89" depart="796.42" from="-E10" to="112789656#0"/>
</routes>
