<?xml version="1.0" encoding="UTF-8"?>

<!-- generated on 2024-06-09 16:42:59.692745 by randomTrips.py UNKNOWN
<configuration>
    <net-file value="config/osm.net.xml.gz"/>
    <route-file value="config/osm.passenger.trips.xml"/>
    <length value="True"/>
    <end value="10000.0"/>
    <insertion-density value="6.0"/>
</configuration>
-->

<routes xmlns:xsi="http://www.w3.org/2001/XMLSchema-instance" xsi:noNamespaceSchemaLocation="http://sumo.dlr.de/xsd/routes_file.xsd">
    <trip id="0" depart="0.00" from="28431139" to="-215063191#1"/>
    <trip id="1" depart="2.40" from="-28531936#0" to="-28469808#0"/>
    <trip id="2" depart="4.80" from="28507490" to="28445306#0"/>
    <trip id="3" depart="7.20" from="43956693" to="-24411737#0"/>
    <trip id="4" depart="9.59" from="-829372257#0" to="-215063191#2"/>
    <trip id="5" depart="11.99" from="-28469775#0" to="23101307#2"/>
    <trip id="6" depart="14.39" from="-215063191#1" to="-28445978#1"/>
    <trip id="7" depart="16.79" from="28439703#0" to="24219715#0"/>
    <trip id="8" depart="19.19" from="-28469775#2" to="24429421#0"/>
    <trip id="9" depart="21.59" from="306835269#0" to="-150992308"/>
    <trip id="10" depart="23.99" from="306827382" to="28445924#1"/>
    <trip id="11" depart="26.39" from="-379116413" to="-28439734"/>
    <trip id="12" depart="28.78" from="532834685#1" to="-376934403"/>
    <trip id="13" depart="31.18" from="-24411739#4" to="-24429414#1"/>
    <trip id="14" depart="33.58" from="368027894" to="24460187#0"/>
    <trip id="15" depart="35.98" from="306828551" to="28469820#0"/>
    <trip id="16" depart="38.38" from="24010453#1" to="65239262"/>
    <trip id="17" depart="40.78" from="-4597561" to="24280679"/>
    <trip id="18" depart="43.18" from="32646475" to="25900011#3"/>
    <trip id="19" depart="45.57" from="37717826#1" to="24411739#3"/>
    <trip id="20" depart="47.97" from="28446077#0" to="-23101374#0"/>
    <trip id="21" depart="50.37" from="-28469820#3" to="-294063993#1"/>
    <trip id="22" depart="52.77" from="-24280903" to="-28507472"/>
    <trip id="23" depart="55.17" from="-24429449" to="-28531940#0"/>
    <trip id="24" depart="57.57" from="28431014" to="-43956694"/>
    <trip id="25" depart="59.97" from="-4597514#1" to="-28446138"/>
    <trip id="26" depart="62.37" from="-28531901#1" to="49431368#0"/>
    <trip id="27" depart="64.76" from="28439640#0" to="25035713#3"/>
    <trip id="28" depart="67.16" from="-284450520" to="28469813"/>
    <trip id="29" depart="69.56" from="-28440668#0" to="-4597561"/>
    <trip id="30" depart="71.96" from="894577015#0" to="28431089"/>
    <trip id="31" depart="74.36" from="24280744" to="28445704"/>
    <trip id="32" depart="76.76" from="367477211#1" to="28531907#3"/>
    <trip id="33" depart="79.16" from="-28469850#0" to="-219206165#0"/>
    <trip id="34" depart="81.55" from="-318976067#0" to="-28531901#2"/>
    <trip id="35" depart="83.95" from="-28469559#1" to="49833225"/>
    <trip id="36" depart="86.35" from="409854836#1" to="-318975590#1"/>
    <trip id="37" depart="88.75" from="28439746#0" to="-49431371"/>
    <trip id="38" depart="91.15" from="4597533" to="150992316#3"/>
    <trip id="39" depart="93.55" from="-28531901#0" to="-28511545#1"/>
    <trip id="40" depart="95.95" from="24398271#0" to="-28512779"/>
    <trip id="41" depart="98.34" from="24429414#0" to="43956703#1"/>
    <trip id="42" depart="100.74" from="-49833225" to="-28469775#0"/>
    <trip id="43" depart="103.14" from="901591634" to="23523334"/>
    <trip id="44" depart="105.54" from="-24411739#3" to="-232369956"/>
    <trip id="45" depart="107.94" from="-25035714#2" to="28430767#2"/>
    <trip id="46" depart="110.34" from="28609630#1" to="-829372257#0"/>
    <trip id="47" depart="112.74" from="-24010372#0" to="-4597575#1"/>
    <trip id="48" depart="115.14" from="895274369" to="24010373#2"/>
    <trip id="49" depart="117.53" from="65239258" to="37619852#3"/>
    <trip id="50" depart="119.93" from="-153333143#0" to="28469766#1"/>
    <trip id="51" depart="122.33" from="28445677#3" to="24010453#0"/>
    <trip id="52" depart="124.73" from="-28531901#1" to="28431114#2"/>
    <trip id="53" depart="127.13" from="-25035716#0" to="-895274369"/>
    <trip id="54" depart="129.53" from="150992308" to="52024395#1"/>
    <trip id="55" depart="131.93" from="409854833" to="-28512897"/>
    <trip id="56" depart="134.32" from="23101284#0" to="-28445677#0"/>
    <trip id="57" depart="136.72" from="4597529#0" to="379326666"/>
    <trip id="58" depart="139.12" from="-306832005#1" to="28431040"/>
    <trip id="59" depart="141.52" from="25035715#0" to="-28439703#0"/>
    <trip id="60" depart="143.92" from="28512760#0" to="24010499#0"/>
    <trip id="61" depart="146.32" from="28531936#0" to="24010373#3"/>
    <trip id="62" depart="148.72" from="-1103958607" to="-32647514"/>
    <trip id="63" depart="151.12" from="-200184696" to="46650412#1"/>
    <trip id="64" depart="153.51" from="409854836#3" to="32646475"/>
    <trip id="65" depart="155.91" from="-318308310#4" to="-24010309#0"/>
    <trip id="66" depart="158.31" from="409854836#2" to="499367889#1-AddedOffRampEdge"/>
    <trip id="67" depart="160.71" from="-24411731#3" to="215063191#1"/>
    <trip id="68" depart="163.11" from="-24010448" to="28512711"/>
    <trip id="69" depart="165.51" from="28512779" to="-28430767#20"/>
    <trip id="70" depart="167.91" from="199889212#0" to="24280574#0"/>
    <trip id="71" depart="170.30" from="-28531901#0" to="38295583"/>
    <trip id="72" depart="172.70" from="-829372257#0" to="-28469675#0"/>
    <trip id="73" depart="175.10" from="24010499#2" to="28469820#0"/>
    <trip id="74" depart="177.50" from="-28446034#0" to="-318975588#0"/>
    <trip id="75" depart="179.90" from="895030158#5" to="28439640#0"/>
    <trip id="76" depart="182.30" from="1009877297" to="24010305#3"/>
    <trip id="77" depart="184.70" from="-25907998" to="-28469808#1"/>
    <trip id="78" depart="187.10" from="-379116409" to="24429417"/>
    <trip id="79" depart="189.49" from="-28507421" to="-28469775#0"/>
    <trip id="80" depart="191.89" from="-24010452#1" to="28430864#1"/>
    <trip id="81" depart="194.29" from="-28469850#0" to="45265468"/>
    <trip id="82" depart="196.69" from="37619852#0" to="-24010452#1"/>
    <trip id="83" depart="199.09" from="-28507537" to="28444929"/>
    <trip id="84" depart="201.49" from="-28469702#3" to="-28430864#2"/>
    <trip id="85" depart="203.89" from="49431368#0" to="24411731#0"/>
    <trip id="86" depart="206.28" from="165174169#0" to="28531940#0"/>
    <trip id="87" depart="208.68" from="306832005#1" to="-28445836#2"/>
    <trip id="88" depart="211.08" from="-24429417" to="-895030157#2"/>
    <trip id="89" depart="213.48" from="-829372257#0" to="162587817#0"/>
    <trip id="90" depart="215.88" from="28469820#4" to="28445052"/>
    <trip id="91" depart="218.28" from="829372257#1" to="-24429421#1"/>
    <trip id="92" depart="220.68" from="-525245329" to="-379116412"/>
    <trip id="93" depart="223.08" from="37717826#1" to="-28511561#1"/>
    <trip id="94" depart="225.47" from="-28445836#2" to="1155595960"/>
    <trip id="95" depart="227.87" from="-829372257#0" to="-28531940#0"/>
    <trip id="96" depart="230.27" from="-28511597" to="4597563#0"/>
    <trip id="97" depart="232.67" from="1106175080#1" to="376934400"/>
    <trip id="98" depart="235.07" from="24280599" to="-24010305#0"/>
    <trip id="99" depart="237.47" from="938612520" to="32697543#0"/>
    <trip id="100" depart="239.87" from="615179687#2" to="4597577#0"/>
    <trip id="101" depart="242.26" from="368027894" to="-28444907#0"/>
    <trip id="102" depart="244.66" from="215063191#1" to="-28469702#1"/>
    <trip id="103" depart="247.06" from="-50162837" to="-24010309#2"/>
    <trip id="104" depart="249.46" from="-4597561" to="860302127"/>
    <trip id="105" depart="251.86" from="-28531901#0" to="28531940#0"/>
    <trip id="106" depart="254.26" from="150992316#1" to="-829372257#0"/>
    <trip id="107" depart="256.66" from="532834685#1" to="895030158#5"/>
    <trip id="108" depart="259.05" from="24280729#3" to="28469747#0"/>
    <trip id="109" depart="261.45" from="-28439715" to="-30524735#1"/>
    <trip id="110" depart="263.85" from="615179687#2" to="24411739#4"/>
    <trip id="111" depart="266.25" from="24212016#0" to="28511500"/>
    <trip id="112" depart="268.65" from="-24010307#0" to="24428171"/>
    <trip id="113" depart="271.05" from="23101284#3" to="368027903"/>
    <trip id="114" depart="273.45" from="-28439743#1" to="532834699#0"/>
    <trip id="115" depart="275.85" from="-24280903" to="-28445827#0"/>
    <trip id="116" depart="278.24" from="24429574#1" to="28445171#1"/>
    <trip id="117" depart="280.64" from="-28507520" to="-25900012#2"/>
    <trip id="118" depart="283.04" from="43950173#1" to="-28511545#1"/>
    <trip id="119" depart="285.44" from="24429574#1" to="25900011#3"/>
    <trip id="120" depart="287.84" from="-65239264#0" to="24428171"/>
    <trip id="121" depart="290.24" from="24010309#5" to="49431368#0"/>
    <trip id="122" depart="292.64" from="-28446077#0" to="28469675#2"/>
    <trip id="123" depart="295.03" from="-28507579" to="-49431371"/>
    <trip id="124" depart="297.43" from="28445052.165" to="-306832538"/>
    <trip id="125" depart="299.83" from="-318976067#1" to="28511561#0"/>
    <trip id="126" depart="302.23" from="-24010452#1" to="150992316#3"/>
    <trip id="127" depart="304.63" from="901591634" to="895274369"/>
    <trip id="128" depart="307.03" from="-24010453#2" to="-28469675#1"/>
    <trip id="129" depart="309.43" from="-28531901#0" to="49190133"/>
    <trip id="130" depart="311.83" from="409854846#1" to="409854836#3"/>
    <trip id="131" depart="314.22" from="-4597514#0" to="-28439746#0"/>
    <trip id="132" depart="316.62" from="32697543#0" to="28446034#0"/>
    <trip id="133" depart="319.02" from="25035716#2" to="867818224#2"/>
    <trip id="134" depart="321.42" from="28439743#0" to="-150992316#1"/>
    <trip id="135" depart="323.82" from="318308310#1" to="-306832538"/>
    <trip id="136" depart="326.22" from="28440668#4" to="49431371"/>
    <trip id="137" depart="328.62" from="-28430921#0" to="-25900011#10"/>
    <trip id="138" depart="331.01" from="-25035713#1" to="24280721"/>
    <trip id="139" depart="333.41" from="-28531919" to="24460187#3"/>
    <trip id="140" depart="335.81" from="28469766#0" to="-28446072"/>
    <trip id="141" depart="338.21" from="28431008#0" to="-28513021#1"/>
    <trip id="142" depart="340.61" from="215063191#2" to="45265468"/>
    <trip id="143" depart="343.01" from="368027894" to="-24411739#3"/>
    <trip id="144" depart="345.41" from="-829372257#0" to="-28531936#1"/>
    <trip id="145" depart="347.81" from="-1182941319" to="28531901#0"/>
    <trip id="146" depart="350.20" from="28431050" to="-28512760#2"/>
    <trip id="147" depart="352.60" from="28507542" to="24280679"/>
    <trip id="148" depart="355.00" from="-867818224#5" to="-150992316#2"/>
    <trip id="149" depart="357.40" from="-24010499#0" to="430425866"/>
    <trip id="150" depart="359.80" from="43956850#2" to="24219797#1"/>
    <trip id="151" depart="362.20" from="366874227#0" to="24428171"/>
    <trip id="152" depart="364.60" from="-28439180" to="-28430767#1"/>
    <trip id="153" depart="366.99" from="-318308319" to="43956704#1"/>
    <trip id="154" depart="369.39" from="294063993#1" to="37619852#2"/>
    <trip id="155" depart="371.79" from="43956704#1" to="-28469406"/>
    <trip id="156" depart="374.19" from="-28511597" to="-24460187#0"/>
    <trip id="157" depart="376.59" from="28531936#1" to="43950161#4"/>
    <trip id="158" depart="378.99" from="-53757994#1" to="25900011#8"/>
    <trip id="159" depart="381.39" from="-28439715" to="475519150#1"/>
    <trip id="160" depart="383.79" from="379116411#1" to="65239264#0"/>
    <trip id="161" depart="386.18" from="318249253" to="409854846#1"/>
    <trip id="162" depart="388.58" from="-215063191#1" to="28507441#1"/>
    <trip id="163" depart="390.98" from="-37619847#1" to="475519150#3"/>
    <trip id="164" depart="393.38" from="30524735#0" to="37759107#1-AddedOnRampEdge"/>
    <trip id="165" depart="395.78" from="318249253" to="-28531901#1"/>
    <trip id="166" depart="398.18" from="28605470#0" to="-25035713#2"/>
    <trip id="167" depart="400.58" from="38295585" to="37619844"/>
    <trip id="168" depart="402.97" from="-28469786" to="318263112"/>
    <trip id="169" depart="405.37" from="150992316#3" to="-318263112"/>
    <trip id="170" depart="407.77" from="294063993#1" to="-28469820#1"/>
    <trip id="171" depart="410.17" from="-215063191#1" to="-28445884"/>
    <trip id="172" depart="412.57" from="-366874227#2" to="379116409"/>
    <trip id="173" depart="414.97" from="615174340" to="-28531940#1"/>
    <trip id="174" depart="417.37" from="28431173#1" to="-49833225"/>
    <trip id="175" depart="419.76" from="829372257#0" to="24010452#1"/>
    <trip id="176" depart="422.16" from="49431372#0" to="-25900011#1"/>
    <trip id="177" depart="424.56" from="615185955#1" to="-28445677#0"/>
    <trip id="178" depart="426.96" from="53757994#2" to="-28531901#0"/>
    <trip id="179" depart="429.36" from="-25035713#3" to="-895030158#5"/>
    <trip id="180" depart="431.76" from="28469820#2" to="-318975590#0"/>
    <trip id="181" depart="434.16" from="25035713#1" to="23523953"/>
    <trip id="182" depart="436.56" from="-475519150#1" to="24411739#1"/>
    <trip id="183" depart="438.95" from="-28512693" to="28446104"/>
    <trip id="184" depart="441.35" from="-1155581945" to="4597575#1"/>
    <trip id="185" depart="443.75" from="24010499#0" to="28469747#2"/>
    <trip id="186" depart="446.15" from="28507579" to="28444944"/>
    <trip id="187" depart="448.55" from="-43956694" to="-24010448"/>
    <trip id="188" depart="450.95" from="28444907#0" to="-366874229#0"/>
    <trip id="189" depart="453.35" from="-318975590#1" to="367477955#2"/>
    <trip id="190" depart="455.74" from="28469775#0" to="-306832538"/>
    <trip id="191" depart="458.14" from="-318308320#1" to="-55638813#2"/>
    <trip id="192" depart="460.54" from="-525245329" to="-30524735#1"/>
    <trip id="193" depart="462.94" from="-28430767#0" to="-65239264#2"/>
    <trip id="194" depart="465.34" from="49431372#1" to="28445324#0"/>
    <trip id="195" depart="467.74" from="43956850#1" to="25900011#0"/>
    <trip id="196" depart="470.14" from="-318249253" to="24270112#0"/>
    <trip id="197" depart="472.54" from="-1103958607" to="-294063993#0"/>
    <trip id="198" depart="474.93" from="-894993141" to="24411739#5"/>
    <trip id="199" depart="477.33" from="28439743#1" to="153333143#0"/>
    <trip id="200" depart="479.73" from="1094535779" to="-28469702#0"/>
    <trip id="201" depart="482.13" from="165174171" to="43956731#1"/>
    <trip id="202" depart="484.53" from="294063993#1" to="-28444958"/>
    <trip id="203" depart="486.93" from="-24411731#1" to="24010305#1"/>
    <trip id="204" depart="489.33" from="28430937" to="-376934403"/>
    <trip id="205" depart="491.72" from="318308320#1" to="28511545#1"/>
    <trip id="206" depart="494.12" from="28445153#1" to="-28469808#1"/>
    <trip id="207" depart="496.52" from="-28445978#1" to="-215063191#1"/>
    <trip id="208" depart="498.92" from="-28511538" to="165174176#0"/>
    <trip id="209" depart="501.32" from="368027896" to="-24010453#0"/>
    <trip id="210" depart="503.72" from="-65239257" to="28430834"/>
    <trip id="211" depart="506.12" from="-28445924#1" to="28445884"/>
    <trip id="212" depart="508.52" from="219206166#1" to="-28511538"/>
    <trip id="213" depart="510.91" from="28439746#0" to="-150913621"/>
    <trip id="214" depart="513.31" from="28511561#0" to="28531901#0"/>
    <trip id="215" depart="515.71" from="-25035713#0" to="-829372257#1"/>
    <trip id="216" depart="518.11" from="-28445324#1" to="532834686"/>
    <trip id="217" depart="520.51" from="24010305#5" to="-24010305#0"/>
    <trip id="218" depart="522.91" from="-28511597" to="368027896"/>
    <trip id="219" depart="525.31" from="150992316#2" to="30524599"/>
    <trip id="220" depart="527.70" from="28444936" to="867818224#6"/>
    <trip id="221" depart="530.10" from="24429574#1" to="499367899"/>
    <trip id="222" depart="532.50" from="43956688" to="25035716#1"/>
    <trip id="223" depart="534.90" from="28469775#0" to="23101284#4"/>
    <trip id="224" depart="537.30" from="32647514" to="24270112#0"/>
    <trip id="225" depart="539.70" from="43956703#1" to="28507542"/>
    <trip id="226" depart="542.10" from="199423032" to="-28512760#0"/>
    <trip id="227" depart="544.50" from="-28511561#0" to="28431014"/>
    <trip id="228" depart="546.89" from="28512779" to="24010307#0"/>
    <trip id="229" depart="549.29" from="28430821#0" to="-28531927"/>
    <trip id="230" depart="551.69" from="-24280557#2" to="-28609684"/>
    <trip id="231" depart="554.09" from="-28531914#0" to="-319081826"/>
    <trip id="232" depart="556.49" from="24210398" to="-28431018"/>
    <trip id="233" depart="558.89" from="-28507441#1" to="28445836#2"/>
    <trip id="234" depart="561.29" from="28446092#1" to="-24010372#1"/>
    <trip id="235" depart="563.68" from="-55638813#0" to="24212016#0"/>
    <trip id="236" depart="566.08" from="-65239262" to="-28446127#1"/>
    <trip id="237" depart="568.48" from="-65239264#2" to="4423509"/>
    <trip id="238" depart="570.88" from="24428171" to="28445884"/>
    <trip id="239" depart="573.28" from="375568351" to="28512760#0"/>
    <trip id="240" depart="575.68" from="-4597575#1" to="-150992308"/>
    <trip id="241" depart="578.08" from="-409854836#2" to="28511561#1"/>
    <trip id="242" depart="580.47" from="37312618" to="52024395#0"/>
    <trip id="243" depart="582.87" from="-65239263" to="28511500"/>
    <trip id="244" depart="585.27" from="24270106" to="24445116"/>
    <trip id="245" depart="587.67" from="-28469778" to="-28469775#0"/>
    <trip id="246" depart="590.07" from="-901591634" to="-215063191#2"/>
    <trip id="247" depart="592.47" from="-376934403" to="28445324#2"/>
    <trip id="248" depart="594.87" from="-532834680" to="-28444864"/>
    <trip id="249" depart="597.27" from="162587820" to="-28430767#1"/>
    <trip id="250" depart="599.66" from="28430363" to="-215063191#2"/>
    <trip id="251" depart="602.06" from="-49431368#1" to="24398404"/>
    <trip id="252" depart="604.46" from="-215063191#2" to="28431158"/>
    <trip id="253" depart="606.86" from="-28430965#1" to="150992316#3"/>
    <trip id="254" depart="609.26" from="-24010305#0" to="-4597561"/>
    <trip id="255" depart="611.66" from="-28469675#0" to="-366874227#0"/>
    <trip id="256" depart="614.06" from="28512743#2" to="-4597561"/>
    <trip id="257" depart="616.45" from="28511561#1" to="32647485"/>
    <trip id="258" depart="618.85" from="-28512616#2" to="-24398533"/>
    <trip id="259" depart="621.25" from="-200184696" to="24010499#0"/>
    <trip id="260" depart="623.65" from="E1" to="-387845906#1"/>
    <trip id="261" depart="626.05" from="28439703#0" to="28531936#0"/>
    <trip id="262" depart="628.45" from="28439715" to="28511561#1"/>
    <trip id="263" depart="630.85" from="499367899" to="-28445978#1"/>
    <trip id="264" depart="633.25" from="-202178253#1" to="-28439703#0"/>
    <trip id="265" depart="635.64" from="-28430751#0" to="28444936"/>
    <trip id="266" depart="638.04" from="24398404" to="-28469766#1"/>
    <trip id="267" depart="640.44" from="28445978#1" to="28512760#1"/>
    <trip id="268" depart="642.84" from="-28444929" to="25035713#0"/>
    <trip id="269" depart="645.24" from="28511538" to="-25900011#0"/>
    <trip id="270" depart="647.64" from="318308320#1" to="55638813#2"/>
    <trip id="271" depart="650.04" from="-25035713#2" to="-215063191#1"/>
    <trip id="272" depart="652.43" from="-318975588#0" to="28445324#0"/>
    <trip id="273" depart="654.83" from="532834686" to="-49431372#0"/>
    <trip id="274" depart="657.23" from="28469702#3" to="-24010499#2"/>
    <trip id="275" depart="659.63" from="28445836#1" to="28430767#1"/>
    <trip id="276" depart="662.03" from="-24429574#0" to="28531901#1"/>
    <trip id="277" depart="664.43" from="368027897" to="24445115#1"/>
    <trip id="278" depart="666.83" from="-25907998" to="829372257#0"/>
    <trip id="279" depart="669.23" from="28531940#0" to="-38295585"/>
    <trip id="280" depart="671.62" from="-867818226#1" to="-4597514#2"/>
    <trip id="281" depart="674.02" from="23101374#0" to="-379116415"/>
    <trip id="282" depart="676.42" from="368027896" to="318310659"/>
    <trip id="283" depart="678.82" from="-24460225#1" to="532834699#0"/>
    <trip id="284" depart="681.22" from="28431014" to="318976069"/>
    <trip id="285" depart="683.62" from="28446127#0" to="-901591634"/>
    <trip id="286" depart="686.02" from="28507435#1" to="615174339"/>
    <trip id="287" depart="688.41" from="-28531907#3" to="306828551"/>
    <trip id="288" depart="690.81" from="24010499#0" to="215063191#0"/>
    <trip id="289" depart="693.21" from="-901591634" to="28469820#4"/>
    <trip id="290" depart="695.61" from="-28531907#1" to="368027901#2"/>
    <trip id="291" depart="698.01" from="32647514" to="-24411737#0"/>
    <trip id="292" depart="700.41" from="409854846#1" to="-28511538"/>
    <trip id="293" depart="702.81" from="153333143#1" to="25035714#2"/>
    <trip id="294" depart="705.21" from="-4597561" to="-215063191#2"/>
    <trip id="295" depart="707.60" from="368027901#1" to="-28445704"/>
    <trip id="296" depart="710.00" from="-28469675#0" to="294063993#1"/>
    <trip id="297" depart="712.40" from="-379116413" to="409854846#0"/>
    <trip id="298" depart="714.80" from="28446014" to="-28531936#1"/>
    <trip id="299" depart="717.20" from="-152330551#2" to="499367895-AddedOnRampEdge"/>
    <trip id="300" depart="719.60" from="-24411731#3" to="28469766#0"/>
    <trip id="301" depart="722.00" from="215063191#2" to="28512616#3"/>
    <trip id="302" depart="724.39" from="28445836#1" to="28439125#0"/>
    <trip id="303" depart="726.79" from="215063191#2" to="28609620"/>
    <trip id="304" depart="729.19" from="-24411739#5" to="-28469782#0"/>
    <trip id="305" depart="731.59" from="28445836#2" to="-318308310#0"/>
    <trip id="306" depart="733.99" from="24428171" to="165174169#0"/>
    <trip id="307" depart="736.39" from="24010447#2" to="-866924640"/>
    <trip id="308" depart="738.79" from="28511500" to="-366874229#1"/>
    <trip id="309" depart="741.18" from="28446045#1" to="-28531914#0"/>
    <trip id="310" depart="743.58" from="-28512616#1" to="-25907998"/>
    <trip id="311" depart="745.98" from="-28445884" to="-25900011#9"/>
    <trip id="312" depart="748.38" from="24010452#1" to="28512743#0"/>
    <trip id="313" depart="750.78" from="-28445827#0" to="-28469747#2"/>
    <trip id="314" depart="753.18" from="215063191#0" to="28469786"/>
    <trip id="315" depart="755.58" from="708217603#0" to="24010309#6"/>
    <trip id="316" depart="757.98" from="-28605470#1" to="-24429449"/>
    <trip id="317" depart="760.37" from="-28445924#0" to="-28469820#0"/>
    <trip id="318" depart="762.77" from="-28445677#2" to="-162101942"/>
    <trip id="319" depart="765.17" from="24010452#1" to="-28531927"/>
    <trip id="320" depart="767.57" from="65239262" to="24280721"/>
    <trip id="321" depart="769.97" from="28445937" to="-28430751#0"/>
    <trip id="322" depart="772.37" from="379326665" to="215063191#2"/>
    <trip id="323" depart="774.77" from="38295585" to="24411737#1"/>
    <trip id="324" depart="777.16" from="164370494#0" to="1015477284#1-AddedOffRampEdge"/>
    <trip id="325" depart="779.56" from="-28445804" to="-24010305#1"/>
    <trip id="326" depart="781.96" from="49431374" to="199889212#1"/>
    <trip id="327" depart="784.36" from="318975588#1" to="-50161740"/>
    <trip id="328" depart="786.76" from="-24010453#4" to="28430825"/>
    <trip id="329" depart="789.16" from="-24010305#4" to="-28439595#1"/>
    <trip id="330" depart="791.56" from="24398404" to="-318256917#1"/>
    <trip id="331" depart="793.96" from="895030157#6" to="-25900011#4"/>
    <trip id="332" depart="796.35" from="28512760#1" to="24460225#1"/>
    <trip id="333" depart="798.75" from="28609620" to="-28469813"/>
    <trip id="334" depart="801.15" from="24010309#4" to="117849358"/>
    <trip id="335" depart="803.55" from="1106175079" to="37619850"/>
    <trip id="336" depart="805.95" from="894577026" to="-318263112"/>
    <trip id="337" depart="808.35" from="25900362" to="25035713#4"/>
    <trip id="338" depart="810.75" from="28507526" to="499367895-AddedOffRampEdge"/>
    <trip id="339" depart="813.14" from="-28446138" to="-28469559#0"/>
    <trip id="340" depart="815.54" from="28440663" to="-28439743#0"/>
    <trip id="341" depart="817.94" from="-28445306#0" to="-24010499#0"/>
    <trip id="342" depart="820.34" from="-117849358" to="117849358"/>
    <trip id="343" depart="822.74" from="24429574#0" to="-30180632"/>
    <trip id="344" depart="825.14" from="-28507460" to="28446077#0"/>
    <trip id="345" depart="827.54" from="28446052" to="150913629"/>
    <trip id="346" depart="829.94" from="28445827#1" to="4597570#1"/>
    <trip id="347" depart="832.33" from="28605470#1" to="28430726"/>
    <trip id="348" depart="834.73" from="28440668#0" to="49431367"/>
    <trip id="349" depart="837.13" from="-866924640" to="24219715#0"/>
    <trip id="350" depart="839.53" from="28439619#1" to="45265469"/>
    <trip id="351" depart="841.93" from="318976069" to="-24010452#1"/>
    <trip id="352" depart="844.33" from="-28444907#0" to="-318308310#4"/>
    <trip id="353" depart="846.73" from="28511545#0" to="24411624"/>
    <trip id="354" depart="849.12" from="-294063993#1" to="-25907998"/>
    <trip id="355" depart="851.52" from="28445827#1" to="28445978#0"/>
    <trip id="356" depart="853.92" from="49833225" to="219206170#2"/>
    <trip id="357" depart="856.32" from="219206165#1" to="-24280903"/>
    <trip id="358" depart="858.72" from="-219206170#2" to="-895030157#4"/>
    <trip id="359" depart="861.12" from="-32647514" to="-28511597"/>
    <trip id="360" depart="863.52" from="-24411739#3" to="53757994#1"/>
    <trip id="361" depart="865.92" from="366874227#2" to="24411737#4"/>
    <trip id="362" depart="868.31" from="50162836#1" to="938612521#1"/>
    <trip id="363" depart="870.71" from="28445153#0" to="-28531907#2"/>
    <trip id="364" depart="873.11" from="-23101284#0" to="28511597"/>
    <trip id="365" depart="875.51" from="164370531" to="28439647#1"/>
    <trip id="366" depart="877.91" from="4597541#1" to="-28445677#4"/>
    <trip id="367" depart="880.31" from="24429414#1" to="28430937"/>
    <trip id="368" depart="882.71" from="215063191#2" to="-24411739#3"/>
    <trip id="369" depart="885.10" from="-38295586" to="-37619850"/>
    <trip id="370" depart="887.50" from="28444944" to="375568351"/>
    <trip id="371" depart="889.90" from="-366874229#0" to="28445836#2"/>
    <trip id="372" depart="892.30" from="-294063993#1" to="499367889#1"/>
    <trip id="373" depart="894.70" from="318256917#2" to="24280574#0"/>
    <trip id="374" depart="897.10" from="150992316#1" to="-318975590#1"/>
    <trip id="375" depart="899.50" from="-32647514" to="615179691"/>
    <trip id="376" depart="901.89" from="-532834680" to="24010305#0"/>
    <trip id="377" depart="904.29" from="867818228" to="28439746#0"/>
    <trip id="378" depart="906.69" from="24212016#2" to="-65239257"/>
    <trip id="379" depart="909.09" from="-28445827#1" to="-43950173#0"/>
    <trip id="380" depart="911.49" from="28512616#3" to="28430738"/>
    <trip id="381" depart="913.89" from="28512743#0" to="-28446072"/>
    <trip id="382" depart="916.29" from="24280574#0" to="46650407#1"/>
    <trip id="383" depart="918.69" from="1009877297" to="28445937"/>
    <trip id="384" depart="921.08" from="-25907998" to="65239262"/>
    <trip id="385" depart="923.48" from="25035715#0" to="-28511500"/>
    <trip id="386" depart="925.88" from="-28439746#0" to="24280599"/>
    <trip id="387" depart="928.28" from="24280721" to="-24411739#5"/>
    <trip id="388" depart="930.68" from="895030157#4" to="4597529#1"/>
    <trip id="389" depart="933.08" from="150992316#3" to="-25900011#3"/>
    <trip id="390" depart="935.48" from="32697543#0" to="219206167#1"/>
    <trip id="391" depart="937.87" from="28469747#1" to="232369956"/>
    <trip id="392" depart="940.27" from="-28531927" to="32697543#0"/>
    <trip id="393" depart="942.67" from="829372257#0" to="-28511538"/>
    <trip id="394" depart="945.07" from="24280679" to="-46650412#0"/>
    <trip id="395" depart="947.47" from="4597561" to="23101374#3"/>
    <trip id="396" depart="949.87" from="409854836#3" to="37759107#1-AddedOnRampEdge"/>
    <trip id="397" depart="952.27" from="-28531936#1" to="28605470#1"/>
    <trip id="398" depart="954.67" from="-65239258" to="49431367"/>
    <trip id="399" depart="957.06" from="23101374#4" to="318308320#1"/>
    <trip id="400" depart="959.46" from="-28605470#1" to="-306832005#0"/>
    <trip id="401" depart="961.86" from="24429418#1" to="901591635#0"/>
    <trip id="402" depart="964.26" from="215063191#2" to="-28439595#0"/>
    <trip id="403" depart="966.66" from="24010499#0" to="-379326665"/>
    <trip id="404" depart="969.06" from="24280679" to="24212016#2"/>
    <trip id="405" depart="971.46" from="150992316#1" to="-32646475"/>
    <trip id="406" depart="973.85" from="-28445827#1" to="28445924#1"/>
    <trip id="407" depart="976.25" from="24411737#1" to="-28507490"/>
    <trip id="408" depart="978.65" from="28531914#0" to="-23101307#0"/>
    <trip id="409" depart="981.05" from="28511500" to="28446052"/>
    <trip id="410" depart="983.45" from="318249253" to="-475519150#3"/>
    <trip id="411" depart="985.85" from="28444864" to="318308320#1"/>
    <trip id="412" depart="988.25" from="829372257#0" to="219206166#1"/>
    <trip id="413" depart="990.65" from="-219206168" to="23101284#1"/>
    <trip id="414" depart="993.04" from="24429449" to="379326665"/>
    <trip id="415" depart="995.44" from="38400051" to="1015477284#1-AddedOffRampEdge"/>