<?xml version="1.0" encoding="UTF-8"?>

<!-- generated on 2024-06-09 16:47:42.386994 by randomTrips.py UNKNOWN
<configuration>
    <net-file value="config/osm.net.xml.gz"/>
    <route-file value="config/osm.passenger.trips.xml"/>
    <length value="True"/>
    <end value="10000.0"/>
    <insertion-density value="12.0"/>
</configuration>
-->

<!-- generated on 2024-06-09 16:47:42 by Eclipse SUMO duarouter Version 1.20.0
<configuration xmlns:xsi="http://www.w3.org/2001/XMLSchema-instance" xsi:noNamespaceSchemaLocation="http://sumo.dlr.de/xsd/duarouterConfiguration.xsd">

    <input>
        <net-file value="config/osm.net.xml.gz"/>
        <route-files value="trips.trips.xml"/>
    </input>

    <output>
        <output-file value="config/osm.passenger.trips.xml"/>
        <alternatives-output value="NUL"/>
    </output>

    <time>
        <begin value="0"/>
        <end value="10000.0"/>
    </time>

    <report>
        <no-warnings value="true"/>
        <ignore-errors value="true"/>
        <no-step-log value="true"/>
    </report>

</configuration>
-->

<routes xmlns:xsi="http://www.w3.org/2001/XMLSchema-instance" xsi:noNamespaceSchemaLocation="http://sumo.dlr.de/xsd/routes_file.xsd">
    <vehicle id="0" depart="0.00">
        <route edges="489052143#2 769617077#5 769617077#6 769617077#7 769604867#1 769604867#2 261333331#6 261333331#7 -261333331#7"/>
    </vehicle>
    <vehicle id="1" depart="1.55">
        <route edges="-835022326 835022325#1 -261333332#3 527003140#3 261333233#0 261333233#1 261333233#2 769619119#16 769619119#17 769619119#18 769619123 755584628#4 755584628#5 755584628#6 -261336452#4 -261336452#3 -261336452#2 -776125897"/>
    </vehicle>
    <vehicle id="2" depart="3.09">
        <route edges="769255154 781496910#0 781496910#1 781496910#2 781496910#3 781496914 1012646754 1012646750#1 1012646750#2 1012646750#3 1012646750#4 1012646750#4-AddedOffRampEdge 769809155 261332293#11-AddedOnRampEdge 261332293#11 261332293#11-AddedOffRampEdge 769809160 667975711#8-AddedOnRampEdge 667975711#8"/>
    </vehicle>
    <vehicle id="3" depart="4.64">
        <route edges="769809154 769619119#7-AddedOnRampEdge 769619119#7 769619119#7-AddedOffRampEdge 769619119#8 769619119#10 769619119#11 769619119#12 769619119#14 769619119#16 769619119#17 -261333331#9 -261333331#8 -261509046#1"/>
    </vehicle>
    <vehicle id="4" depart="6.18">
        <route edges="261333067#1 261333067#2 429879203#1 -261333332#1"/>
    </vehicle>
    <vehicle id="5" depart="7.73">
        <route edges="-769621313#2 769621314#1 -769621312#0 429879202#4 429879198#9 261477099#1"/>
    </vehicle>
    <vehicle id="6" depart="9.27">
        <route edges="-261333331#6 261333331#6 261333331#7 261333331#8 261333331#9 769619119#18 769619123 769619122#0 -755584629#0 -755584628#2 -755584628#1 -769621312#2 -769621312#1"/>
    </vehicle>
    <vehicle id="7" depart="10.82">
        <route edges="489052153#4 489052153#5 489052153#6 489052153#7 489052153#7-AddedOffRampEdge 769809163 968814360#11-AddedOnRampEdge 968814360#11 115324521#0 429879192#6"/>
    </vehicle>
    <vehicle id="8" depart="12.37">
        <route edges="-769621314#0 526938357#2 769604868#2 429879204#3"/>
    </vehicle>
    <vehicle id="9" depart="13.91">
        <route edges="769604868#2 769604872#1 769604872#2 769604872#3 261333067#1 261333067#2 261333233#0 261333233#1 261333233#2 261333329#1 261333329#2 261333329#2-AddedOffRampEdge 261333329#3 261332293#0 261332293#1-AddedOnRampEdge 261332293#1 261332293#2 261332293#3 769809152 489052143#9-AddedOnRampEdge 489052143#9 489052143#10 489052143#11 489052143#12 -261332658#3"/>
    </vehicle>
    <vehicle id="10" depart="15.46">
        <route edges="769604867#3 769604868#1 769604872#2 769604872#3 261333067#1 261333067#2 1012646755#1 1012646755#2 1012646755#4 261333334#5 261333334#6 261333334#6-AddedOffRampEdge 261333334#7 261333334#9 261333334#10-AddedOnRampEdge 261333334#10 -667975722#1 667975722#1"/>
    </vehicle>
    <vehicle id="11" depart="17.00">
        <route edges="115324518#10 667975711#1 667975711#2 667975711#3 667975711#4 667975711#4-AddedOffRampEdge 769809158 769619119#3-AddedOnRampEdge 769619119#3 769619119#3-AddedOffRampEdge 769619119#4 769619119#6 769619119#7-AddedOnRampEdge 769619119#7 769619119#7-AddedOffRampEdge 769619119#8 769619119#10 769619119#11 769619119#12 489052153#2 489052153#3-AddedOnRampEdge 489052153#3 769267445#0 -769267446"/>
    </vehicle>
    <vehicle id="12" depart="18.55">
        <route edges="835170999#1 835170999#10 835170998#1 835170998#2 429879202#2 429879202#3 429879202#4 115324518#1 115324518#2 115324518#4 115324518#5 115324518#7"/>
    </vehicle>
    <vehicle id="13" depart="20.10">
        <route edges="-261509046#1 261333330#3 769604867#2 769604867#3 769604868#1 -526938357#2 -526938357#1 -526938357#0"/>
    </vehicle>
    <vehicle id="14" depart="21.64">
        <route edges="769619119#16 769619119#17 769619119#18 769619123 769619122#0 769619122#1 769619122#1-AddedOffRampEdge 769619122#2 769619122#3 769619122#4-AddedOnRampEdge 769619122#4 769619122#5 769619122#5-AddedOffRampEdge 769804500 429879205#8-AddedOnRampEdge 429879205#8 429879205#10 429879205#11"/>
    </vehicle>
    <vehicle id="15" depart="23.19">
        <route edges="769604867#3 769604868#1 769604872#2 769604872#3 261333067#1 261333067#2 261333233#0 261333233#1 261333233#2 261333329#1 261333329#2 261333329#2-AddedOffRampEdge 261333329#3 261332293#0 261332293#1-AddedOnRampEdge 261332293#1 769255157#0"/>
    </vehicle>
    <vehicle id="16" depart="24.73">
        <route edges="261509047#0 -261509047#0 261333233#2 261333329#1 261333329#2 261333329#2-AddedOffRampEdge 261333329#3 261332293#0 261332293#1-AddedOnRampEdge 261332293#1 261332293#2 261332293#3 261332293#4 261332293#6 261332293#7-AddedOnRampEdge 261332293#7 261332293#7-AddedOffRampEdge 261332293#8 261332293#10 261332293#11-AddedOnRampEdge 261332293#11 261332293#11-AddedOffRampEdge 769809160 667975711#8-AddedOnRampEdge 667975711#8 667975711#9 667975711#10 667975711#11 968814360#1"/>
    </vehicle>
    <vehicle id="17" depart="26.28">
        <route edges="115324542#13 115324542#14 115324518#7 115324518#8 429879198#4"/>
    </vehicle>
    <vehicle id="18" depart="27.82">
        <route edges="769617077#5 769617077#6 769617077#7 261333233#0 261333233#1 261333233#2 769619119#16 769619119#17 769619119#18 769619123 769619122#0 769619122#1 769619122#1-AddedOffRampEdge 769619122#2 769619122#3 769619122#4-AddedOnRampEdge 769619122#4 769619122#5 769619122#5-AddedOffRampEdge 769804500 429879205#8-AddedOnRampEdge 429879205#8"/>
    </vehicle>
    <vehicle id="19" depart="29.37">
        <route edges="769619122#2 115324546#8 115324546#9 115324546#10 769267447#1 769604866#1 429879203#1 429879203#2"/>
    </vehicle>
    <vehicle id="20" depart="30.92">
        <route edges="667975712#8 968814360#0 968814360#1 968814360#3 968814360#4 968814360#6 968814360#7 968814360#7-AddedOffRampEdge 968814360#8 968814360#10 968814360#11-AddedOnRampEdge 968814360#11 115324521#0 115324521#1 115324521#2 115324521#3 115324521#4 -261336449#4 -261336449#3 -261336449#2 -261336449#1"/>
    </vehicle>
    <vehicle id="21" depart="32.46">
        <route edges="-769622105 489052143#11 489052143#12 769545374#1 769545374#2 769545374#3 769545374#4 261333334#14 1012646750#1"/>
    </vehicle>
    <vehicle id="22" depart="34.01">
        <route edges="-261503645#0 1012646750#2 1012646750#3 1012646750#4 1012646750#4-AddedOffRampEdge 1012646750#5 769619119#6 769619119#7-AddedOnRampEdge 769619119#7 769619119#7-AddedOffRampEdge 769619119#8 489052143#8 489052143#9-AddedOnRampEdge 489052143#9 489052143#10 489052143#11 -779270679 -779270676#0"/>
    </vehicle>
    <vehicle id="23" depart="35.55">
        <route edges="-261509048#2 -261509047#2 261333331#9 769619119#18 769619123 769619122#0 769619122#1 769619122#1-AddedOffRampEdge 769619122#2 769619122#3 769619122#4-AddedOnRampEdge 769619122#4 261336449#0 261336449#1 261336449#2 261336449#3 -835179365#1"/>
    </vehicle>
    <vehicle id="24" depart="37.10">
        <route edges="489052143#12 115324542#3 115324542#4 115324542#5 115324542#6 115324542#6-AddedOffRampEdge 115324542#7 115324542#9 115324542#10-AddedOnRampEdge 115324542#10 115324542#11 115324542#13"/>
    </vehicle>
    <vehicle id="25" depart="38.64">
        <route edges="115324537#5 115324537#5-AddedOffRampEdge 115324537#6 489052153#2 489052153#3-AddedOnRampEdge 489052153#3 489052153#4 769622104#0 769622104#1 -769622104#1 -769622104#0"/>
    </vehicle>
    <vehicle id="26" depart="40.19">
        <route edges="-835022302#1 835022302#1"/>
    </vehicle>
    <vehicle id="27" depart="41.74">
        <route edges="489052153#3-AddedOnRampEdge 489052153#3 489052153#4 489052153#5 489052153#6 489052153#7 489052153#7-AddedOffRampEdge 769809163 968814360#11-AddedOnRampEdge 968814360#11 115324521#0 115324521#1 115324521#2 115324521#3 115324521#4 115324521#5 115324521#5-AddedOffRampEdge 769809169 429879205#2-AddedOnRampEdge 429879205#2 429879205#3"/>
    </vehicle>
    <vehicle id="28" depart="43.28">
        <route edges="-769267451#2 -769267451#1 -769267451#0 115324537#3 115324537#4 769255156#0 769255156#1"/>
    </vehicle>
    <vehicle id="29" depart="44.83">
        <route edges="-769267451#0 769267451#0 769267451#1 769267451#2 769619123 769619122#0 115324546#10"/>
    </vehicle>
    <vehicle id="30" depart="46.37">
        <route edges="968814361#3 968814360#6 968814360#7 968814360#7-AddedOffRampEdge 769809164 115324537#2-AddedOnRampEdge 115324537#2 115324537#3 115324537#4 115324537#5 115324537#5-AddedOffRampEdge 115324537#6 489052153#2 489052153#3-AddedOnRampEdge"/>
    </vehicle>
    <vehicle id="31" depart="47.92">
        <route edges="429879198#4 115324518#7 115324518#8 115324518#10 115324518#11 667975712#1"/>
    </vehicle>
    <vehicle id="32" depart="49.47">
        <route edges="769619119#11 769619119#12 261332293#0 261332293#1-AddedOnRampEdge 261332293#1 261332293#2 261332293#3 261332293#4 261332293#6 261332293#7-AddedOnRampEdge 261332293#7 261332293#7-AddedOffRampEdge 769809156 261333334#10-AddedOnRampEdge 261333334#10 -667975722#1 769377811"/>
    </vehicle>
    <vehicle id="33" depart="51.01">
        <route edges="-769622105 489052143#11 489052143#12 115324542#3 115324542#4 115324542#5 115324542#6 115324542#6-AddedOffRampEdge 115324542#7 115324542#9 115324542#10-AddedOnRampEdge 115324542#10 115324542#11 769617077#5 769617077#6 261505973 -261333332#3"/>
    </vehicle>
    <vehicle id="34" depart="52.56">
        <route edges="1012646750#4-AddedOffRampEdge 1012646750#5 1012646750#7 1012646750#8-AddedOnRampEdge 1012646750#8 1012646750#10 1012646750#11 429879198#4 429879198#6 429879198#8 429879198#9 261477099#1 -835166864"/>
    </vehicle>
    <vehicle id="35" depart="54.10">
        <route edges="-769619118#2 -769619118#1 261333334#3 769617077#3 769617077#5 769617077#6 261505973 -835022325#1 835022325#1"/>
    </vehicle>
    <vehicle id="36" depart="55.65">
        <route edges="769621313#2 769604868#1 769604872#2 769604872#3 261333067#1 261333067#2 1012646755#1 1012646755#2 1012646755#4"/>
    </vehicle>
    <vehicle id="37" depart="57.19">
        <route edges="489052168 968814361#0 115324537#1 115324537#2-AddedOnRampEdge 115324537#2 115324537#3 115324537#4 115324537#5 115324537#5-AddedOffRampEdge 769809148 261332293#1-AddedOnRampEdge"/>
    </vehicle>
    <vehicle id="38" depart="58.74">
        <route edges="777438940 261336450#1 261336450#2 261336450#3 261336450#4 261336450#5 115324546#8 115324546#9 115324546#10 769267447#1 261333329#1 261333329#2 261333329#2-AddedOffRampEdge 261333329#3 261332293#0 261332293#1-AddedOnRampEdge 261332293#1 261332293#2 261332293#3 261332293#4 261332293#6 261332293#7-AddedOnRampEdge 261332293#7 261332293#7-AddedOffRampEdge 769809156 261333334#10-AddedOnRampEdge"/>
    </vehicle>
    <vehicle id="39" depart="60.29">
        <route edges="-835016386#1 -835016386#0 -769267451#1 -769267451#0 261332658#0 261332658#1 261332658#3 769545374#1 769545374#2 769545374#3 769545374#4 261333334#14 968814361#8 968814361#9 968814361#10 769255154 781496910#0 -781496910#4"/>
    </vehicle>
    <vehicle id="40" depart="61.83">
        <route edges="429879198#4 489052143#1 -261333332#5 -835022324#2 -835022326"/>
    </vehicle>
    <vehicle id="41" depart="63.38">
        <route edges="429879203#2 429879203#3 115324518#4 115324518#5 489052143#1 489052143#2 489052143#4 489052143#5 489052143#6 261332293#6 261332293#7-AddedOnRampEdge 261332293#7 261332293#7-AddedOffRampEdge 769809156"/>
    </vehicle>
    <vehicle id="42" depart="64.92">
        <route edges="115324546#6-AddedOnRampEdge 115324546#6 115324546#7 115324546#8 115324546#9 -755584630 755584628#5 -776125894#4 -776125894#3"/>
    </vehicle>
    <vehicle id="43" depart="66.47">
        <route edges="968814361#8 781496912#0 781496912#1 781496910#2 781496910#3 781496914 1012646754 1012646750#1 1012646750#2 1012646750#3 1012646750#4 1012646750#4-AddedOffRampEdge 1012646750#5 1012646750#7 1012646750#8-AddedOnRampEdge 1012646750#8 1012646750#10 1012646750#11 429879198#4 429879198#6 429879198#8 429879198#9 261477099#1 261477099#2"/>
    </vehicle>
    <vehicle id="44" depart="68.01">
        <route edges="-261509046#0 261333233#1 261333233#2 769619119#16 769619119#17 769619119#18 769619123 769619122#0 769619122#1 769619122#1-AddedOffRampEdge 769619122#2 769619122#3 769619122#4-AddedOnRampEdge 769619122#4 261336449#0 261336449#1 261336449#2 -261336449#2"/>
    </vehicle>
    <vehicle id="45" depart="69.56">
        <route edges="-667975722#1 -667975722#0 -769255155 115324542#6 115324542#6-AddedOffRampEdge 115324542#7 489052143#8 489052143#9-AddedOnRampEdge 489052143#9 489052143#10"/>
    </vehicle>
    <vehicle id="46" depart="71.11">
        <route edges="769552773 115324521#3 261336450#0 261336450#1 261336450#2 261336450#3 261336450#4 261336450#5 115324546#8 115324546#9 115324546#10 261333330#1 261333330#2 261333330#3"/>
    </vehicle>
    <vehicle id="47" depart="72.65">
        <route edges="-261336450#8 -261336450#7 115324546#8 115324546#9 115324546#10"/>
    </vehicle>
    <vehicle id="48" depart="74.20">
        <route edges="968814361#6 1012646750#1 1012646750#2 1012646750#3 1012646750#4 1012646750#4-AddedOffRampEdge 1012646750#5 769619119#6 769619119#7-AddedOnRampEdge 769619119#7 769619119#7-AddedOffRampEdge 769619119#8 769619119#10 769619119#11 769619119#12 769619119#14 769619119#16 769619119#17 -261333331#9 261509047#2"/>
    </vehicle>
    <vehicle id="49" depart="75.74">
        <route edges="968814360#1 1012646750#1 1012646750#2 1012646750#3 1012646750#4 1012646750#4-AddedOffRampEdge 1012646750#5 769619119#6 769619119#7-AddedOnRampEdge 769619119#7"/>
    </vehicle>
    <vehicle id="50" depart="77.29">
        <route edges="-261333330#1 769619119#17 769619119#18 769619123 -755584628#3 755584629#0"/>
    </vehicle>
    <vehicle id="51" depart="78.84">
        <route edges="667975711#4 667975711#4-AddedOffRampEdge 667975711#5 667975711#6 667975711#7 667975711#8-AddedOnRampEdge 667975711#8 667975711#9 667975711#10 667975711#11 968814360#1 968814360#3 968814360#4 968814360#6 968814360#7 968814360#7-AddedOffRampEdge 968814360#8 968814360#10 968814360#11-AddedOnRampEdge 968814360#11 115324521#0 115324521#1 115324521#2 115324521#3 115324521#4 429879192#4"/>
    </vehicle>
    <vehicle id="52" depart="80.38">
        <route edges="-835022302#1 -769267445#1 -769267445#0 489052153#4"/>
    </vehicle>
    <vehicle id="53" depart="81.93">
        <route edges="-667975722#3 1012646750#4 1012646750#4-AddedOffRampEdge 1012646750#5 1012646750#7 1012646750#8-AddedOnRampEdge 1012646750#8 769617077#3 769617077#5 769617077#6 769617077#7 769604867#1 769604867#2 -261333331#4 261333331#4"/>
    </vehicle>
    <vehicle id="54" depart="83.47">
        <route edges="261333332#1 527003140#3 769604867#1 769604867#2 769604867#3 769604868#1 769604868#2 429879205#10 -835170997 835170996#1"/>
    </vehicle>
    <vehicle id="55" depart="85.02">
        <route edges="769621313#2 769604868#1 769604872#2 769604872#3 261333067#1 261333067#2 429879203#1 261333332#3 261333332#4 -835022324#2 -835022326"/>
    </vehicle>
    <vehicle id="56" depart="86.56">
        <route edges="261336450#4 261336450#5 115324546#8 115324546#9 115324546#10 769267447#1 261333329#1 261333329#2 261333329#2-AddedOffRampEdge 261333329#3 261332293#0 261332293#1-AddedOnRampEdge 261332293#1 261332293#2 261332293#3 261332293#4 261332293#6 261332293#7-AddedOnRampEdge 261332293#7 261332293#7-AddedOffRampEdge 261332293#8 261332293#10 261332293#11-AddedOnRampEdge 261332293#11 261332293#11-AddedOffRampEdge 769809160 667975711#8-AddedOnRampEdge 667975711#8 667975711#9 667975711#10 -769551153#1"/>
    </vehicle>
    <vehicle id="57" depart="88.11">
        <route edges="776125899 261336450#4 261336450#5 769619122#3 769619122#4-AddedOnRampEdge 769619122#4 769619122#5 769619122#5-AddedOffRampEdge 769804500 429879205#8-AddedOnRampEdge 429879205#8 429879205#10 429879205#11 429879202#1 429879202#2 429879202#3 769621312#0"/>
    </vehicle>
    <vehicle id="58" depart="89.66">
        <route edges="-888627577#1 888627578#0 888627578#1 -769267451#0 115324537#3 115324537#4 115324537#5 115324537#5-AddedOffRampEdge 769809148 261332293#1-AddedOnRampEdge 261332293#1 261332293#2 261332293#3 769809152 489052143#9-AddedOnRampEdge"/>
    </vehicle>
    <vehicle id="59" depart="91.20">
        <route edges="429879205#1 429879205#2-AddedOnRampEdge 429879205#2 429879205#3 429879205#4 429879205#4-AddedOffRampEdge 769804502 115324546#3-AddedOnRampEdge 115324546#3 115324546#4 115324546#5 115324546#6-AddedOnRampEdge 115324546#6 115324546#7 115324546#8 115324546#9 115324546#10 769267447#1 261333329#1 769267446 -769267445#0"/>
    </vehicle>
    <vehicle id="60" depart="92.75">
        <route edges="769267447#1 261333329#1 261333329#2 261333329#2-AddedOffRampEdge 769809147 489052153#3-AddedOnRampEdge 489052153#3 489052153#4 489052153#5 489052153#6 489052153#7 489052153#7-AddedOffRampEdge 769809163 968814360#11-AddedOnRampEdge 968814360#11 115324521#0 115324521#1 115324521#2 115324521#3 115324521#4 429879192#4"/>
    </vehicle>
    <vehicle id="61" depart="94.29">
        <route edges="769545374#2 -769545374#2 -769545374#1 -261332658#3 -261332658#1 -261332658#0 115324537#3 115324537#4 115324537#5 115324537#5-AddedOffRampEdge 115324537#6 769619119#14 769619119#16 769619119#17 -261333331#9 -261333331#8 -261333331#7 -261509049#1 261509048#0"/>
    </vehicle>
    <vehicle id="62" depart="95.84">
        <route edges="-1012145670 -769619118#1 1012646750#11 429879198#4 429879198#6 429879198#8 115324518#1"/>
    </vehicle>
    <vehicle id="63" depart="97.38">
        <route edges="-261333330#7 -261333330#6 -261333330#5 261333067#2 1012646755#1 1012646755#2 1012646755#4 261333334#5 261333334#6 261333334#6-AddedOffRampEdge 261333334#7 261333334#9 261333334#10-AddedOnRampEdge 261333334#10 261333334#11 261333334#12 261333334#13 261333334#14 968814361#8 781496912#0 781496912#1 781496910#2 781496910#3 781496910#4"/>
    </vehicle>
    <vehicle id="64" depart="98.93">
        <route edges="769621314#0 769621314#1 -769621312#0 429879202#4 115324518#1 115324518#2 115324518#4 115324518#5 115324518#7 115324518#8 261333334#1 261333334#2 261333334#3 769617077#3"/>
    </vehicle>
    <vehicle id="65" depart="100.48">
        <route edges="1012646750#11 429879198#4 429879198#6 527003140#2 527003140#3 261333233#0 261333233#1 261333233#2 769619119#16 769619119#17 769619119#18 769619123 769619122#0 769619122#1 769619122#1-AddedOffRampEdge 769619122#2 -261336450#5 -261336450#4"/>
    </vehicle>
    <vehicle id="66" depart="102.02">
        <route edges="769621314#0 769621314#1 -769621312#0 429879202#4 115324518#1 115324518#2 527003140#2 429879203#2 835022327"/>
    </vehicle>
    <vehicle id="67" depart="103.57">
        <route edges="-261503647#1 -261503647#0 -769545374#2 -769545374#1 769545373#0 968814360#6 968814360#7 968814360#7-AddedOffRampEdge 968814360#8 968814360#10 968814360#11-AddedOnRampEdge 968814360#11 115324521#0 115324521#1 115324521#2 115324521#3 261336450#0 261336450#1 261336450#2 261336450#3"/>
    </vehicle>
    <vehicle id="68" depart="105.11">
        <route edges="-261336451#1 115324546#5 115324546#6-AddedOnRampEdge 115324546#6 115324546#7 115324546#8 115324546#9 115324546#10 769267447#1 261333329#1 261333329#2 261333329#2-AddedOffRampEdge 769809147 489052153#3-AddedOnRampEdge 489052153#3 489052153#4 489052153#5 489052153#6 769267451#0 769267451#1"/>
    </vehicle>
    <vehicle id="69" depart="106.66">
        <route edges="769267451#1 769267451#2 769619123 755584628#4 755584628#5 755584628#6 755584628#7 -755584628#7"/>
    </vehicle>
    <vehicle id="70" depart="108.21">
        <route edges="261333334#13 261333334#14 1012646750#1 1012646750#2 1012646750#3 1012646750#4 1012646750#4-AddedOffRampEdge 1012646750#5 1012646750#7 1012646750#8-AddedOnRampEdge 1012646750#8 1012646750#10 1012646750#11 429879198#4"/>
    </vehicle>
    <vehicle id="71" depart="109.75">
        <route edges="-835016386#1 -769267449#0 769619119#18 769619123 769619122#0 -755584629#0 -755584628#2 -755584628#1 -769621312#2 -769621312#1 -769621312#0 769621312#0"/>
    </vehicle>
    <vehicle id="72" depart="111.30">
        <route edges="261333067#2 261333233#0 261333233#1 261333233#2 261333329#1 261333329#2 261333329#2-AddedOffRampEdge 769809147 489052153#3-AddedOnRampEdge 489052153#3 489052153#4 489052153#5 489052153#6 115324537#3 -769622105"/>
    </vehicle>
    <vehicle id="73" depart="112.84">
        <route edges="261509048#0 -261509046#2 -261509046#1 -261509046#0 261333233#1 261333233#2 261333329#1 261333329#2 261333329#2-AddedOffRampEdge 261333329#3 261332293#0 261332293#1-AddedOnRampEdge 261332293#1 769255157#0"/>
    </vehicle>
    <vehicle id="74" depart="114.39">
        <route edges="-769551153#1 1012646750#2 1012646750#3 1012646750#4 1012646750#4-AddedOffRampEdge 1012646750#5 769619119#6 769619119#7-AddedOnRampEdge 769619119#7 769619119#7-AddedOffRampEdge 769619119#8 769619119#10 769619119#11 769619119#12 261332292#0 261332292#1 1012646755#2"/>
    </vehicle>
    <vehicle id="75" depart="115.93">
        <route edges="968814361#6 1012646750#1 1012646750#2 1012646750#3 1012646750#4 1012646750#4-AddedOffRampEdge 1012646750#5 1012646750#7 1012646750#8-AddedOnRampEdge 1012646750#8 769617077#3 769617077#5 769617077#6 769617077#7 769604867#1 769604867#2 769604867#3 769604868#1 769604868#2 429879205#10 429879205#11 429879202#1 429879202#2 526938357#0"/>
    </vehicle>
    <vehicle id="76" depart="117.48">
        <route edges="261333330#6 -261333330#6 -261333330#5 261333067#2 261333233#0 261333233#1 261333233#2 261333329#1 261333329#2 261333329#2-AddedOffRampEdge 769809147 489052153#3-AddedOnRampEdge 489052153#3 489052153#4 489052153#5 489052153#6 261332658#0 261332658#1 261332658#3 115324542#3 115324542#4 -261503647#1 261503647#1"/>
    </vehicle>
    <vehicle id="77" depart="119.03">
        <route edges="-755584628#3 755584628#3 769619122#0 769619122#1 769619122#1-AddedOffRampEdge 769619122#2 115324546#8 -776125898"/>
    </vehicle>
    <vehicle id="78" depart="120.57">
        <route edges="115324518#10 115324518#11 667975712#1 769617077#0 769617077#1 769617077#3 769617077#5 769617077#6 769617077#7 769604867#1 769604867#2 769604867#3 769604868#1 769604868#2 429879204#3"/>
    </vehicle>
    <vehicle id="79" depart="122.12">
        <route edges="-769804473#0 -261333330#6 -261333330#5 -261333330#3 -261333330#2 -261333330#1 769619119#17 769619119#18 769619123 755584628#4 755584628#5 -776125894#4"/>
    </vehicle>
    <vehicle id="80" depart="123.66">
        <route edges="-261336451#1 115324546#5 115324546#6-AddedOnRampEdge 115324546#6 115324546#7 115324546#8 115324546#9 115324546#10 769267447#1 261333329#1 261333329#2 261333329#2-AddedOffRampEdge 261333329#3 261332293#0 261332293#1-AddedOnRampEdge 261332293#1 261332293#2 261332293#3 261332293#4 115324542#9 115324542#10-AddedOnRampEdge 115324542#10 115324542#11 115324542#13 489052143#2"/>
    </vehicle>
    <vehicle id="81" depart="125.21">
        <route edges="-769622105 489052143#11 489052143#12 769545373#0 968814360#6 968814360#7 968814360#7-AddedOffRampEdge 968814360#8 968814360#10 968814360#11-AddedOnRampEdge 968814360#11 115324521#0 115324521#1 115324521#2 115324521#3 261336450#0 261336450#1 261336450#2 776125894#0"/>
    </vehicle>
    <vehicle id="82" depart="126.75">
        <route edges="769619122#1 769619122#1-AddedOffRampEdge 769619122#2 115324546#8 115324546#9 -755584630 755584628#5 755584628#6 -261336452#4 -261336452#3"/>
    </vehicle>
    <vehicle id="83" depart="128.30">
        <route edges="-776125894#2 776125898 115324546#9 115324546#10 769267447#1 261333329#1 261333329#2 261333329#2-AddedOffRampEdge 261333329#3 261332293#0 261332293#1-AddedOnRampEdge 261332293#1 261332293#2 261332293#3 261332293#4 261332293#6 261332293#7-AddedOnRampEdge 261332293#7 261332293#7-AddedOffRampEdge 261332293#8 261332293#10 261332293#11-AddedOnRampEdge 261332293#11 261332293#11-AddedOffRampEdge 769809160 667975711#8-AddedOnRampEdge 667975711#8 667975711#9 667975711#10 667975711#11"/>
    </vehicle>
    <vehicle id="84" depart="129.85">
        <route edges="-769621312#0 429879202#4 115324518#1 115324518#2 115324518#4 115324518#5 115324518#7 115324518#8 261333334#1 261333334#2 261333334#3 261333334#5 261333334#6 261333334#6-AddedOffRampEdge 261333334#7 261333334#9 261333334#10-AddedOnRampEdge 261333334#10 -667975722#1 -667975722#0 -769255155"/>
    </vehicle>
    <vehicle id="85" depart="131.39">
        <route edges="835016386#1 769619119#17 769619119#18 769619123 769619122#0 -755584629#0 -755584628#2 -755584628#1 -769621312#2 -769621312#1 -769621312#0 429879202#4"/>
    </vehicle>
    <vehicle id="86" depart="132.94">
        <route edges="261333334#11 261333334#12 261333334#13 -769545374#4 -769545374#3 -769545374#2 769545374#2"/>
    </vehicle>
    <vehicle id="87" depart="134.48">
        <route edges="769604867#3 769604868#1 769604872#2 769604872#3 261333067#1 261333067#2 1012646755#1 1012646755#2 115324542#13 261333332#7 -769619117"/>
    </vehicle>
    <vehicle id="88" depart="136.03">
        <route edges="-261509047#2 -261333331#8 -261333331#7 -261333331#6 -261333331#4 -261333331#3 261333331#3"/>
    </vehicle>
    <vehicle id="89" depart="137.58">
        <route edges="261333067#2 1012646755#1 1012646755#2 1012646755#4 261333334#5"/>
    </vehicle>
    <vehicle id="90" depart="139.12">
        <route edges="755584628#6 -755584628#6 -755584628#5 755584630 115324546#10 769267447#1 769604866#1 1012646755#1 1012646755#2 1012646755#4 1012646755#6 667975711#4"/>
    </vehicle>
    <vehicle id="91" depart="140.67">
        <route edges="968814360#6 968814360#7 968814360#7-AddedOffRampEdge 769809164 115324537#2-AddedOnRampEdge 115324537#2 115324537#3 115324537#4 115324537#5 115324537#5-AddedOffRampEdge 115324537#6 769619119#14 769604866#1 769604867#1 769604867#2 769604867#3 769604868#1 -526938357#2 -526938357#1 -526938357#0"/>
    </vehicle>
    <vehicle id="92" depart="142.21">
        <route edges="261332292#0 261332292#1 1012646755#2 115324542#13 115324542#14 115324518#7 115324518#8"/>
    </vehicle>
    <vehicle id="93" depart="143.76">
        <route edges="769619122#2 115324546#8 115324546#9 115324546#10 769267447#1 261333329#1 261333329#2 261333329#2-AddedOffRampEdge 261333329#3 261332293#0 261332293#1-AddedOnRampEdge 261332293#1 261332293#2 261332293#3 261332293#4 261332293#6 261332293#7-AddedOnRampEdge 261332293#7 261332293#7-AddedOffRampEdge 769809156 261333334#10-AddedOnRampEdge 261333334#10 261333334#11 261333334#12 261333334#13 261333334#14 968814361#8 781496912#0 781496912#1 -781496912#1"/>
    </vehicle>
    <vehicle id="94" depart="145.30">
        <route edges="-769545379 769619123 769619122#0 115324546#10 769267447#1 261333329#1 261333329#2 261333329#2-AddedOffRampEdge 261333329#3 261332293#0 261332293#1-AddedOnRampEdge 261332293#1 261332293#2 261332293#3 261332293#4 115324542#9 115324542#10-AddedOnRampEdge 115324542#10 115324542#11 115324542#13 261333332#7"/>
    </vehicle>
    <vehicle id="95" depart="146.85">
        <route edges="261333067#1 261333067#2 1012646755#1 1012646755#2 489052143#4 489052143#5 489052143#6 769619119#10 769619119#11 888335527#0 -888335527#0"/>
    </vehicle>
    <vehicle id="96" depart="148.40">
        <route edges="-779270696 779270696 779270697#1 261332658#1 261332658#3 769545373#0 968814361#5 781496886 781496887#1"/>
    </vehicle>
    <vehicle id="97" depart="149.94">
        <route edges="261333331#2 261333331#3 261333331#4 261333067#1 261333067#2 1012646755#1 1012646755#2 1012646755#4 261333334#5 261333334#6 261333334#6-AddedOffRampEdge 769809154 769619119#7-AddedOnRampEdge 769619119#7"/>
    </vehicle>
    <vehicle id="98" depart="151.49">
        <route edges="429879192#5 115324521#1 115324521#2 115324521#3 115324521#4 -261336449#4"/>
    </vehicle>
    <vehicle id="99" depart="153.03">
        <route edges="968814361#9 968814361#10 769255154 781496910#0 781496910#1 781496910#2 781496910#3 781496914 1012646754 1012646750#1 1012646750#2 1012646750#3 1012646750#4 1012646750#4-AddedOffRampEdge 1012646750#5 1012646750#7 1012646750#8-AddedOnRampEdge 1012646750#8 769617077#3 769617077#5 769617077#6"/>
    </vehicle>
    <vehicle id="100" depart="154.58">
        <route edges="888627579 -769622104#0 489052153#5 489052153#6 261332658#0 261332658#1 261332658#3 769545374#1 769545374#2 769545374#3 769545374#4 261333334#14 968814361#8 781496912#0 781496912#1 781496910#2 781496910#3"/>
    </vehicle>
    <vehicle id="101" depart="156.12">
        <route edges="769619119#17 769619119#18 -769267451#2 -769267451#1 -769267451#0 261332658#0 261332658#1 261332658#3 115324542#3 115324542#4 -261503647#1 -261503645#1 -769377811"/>
    </vehicle>
    <vehicle id="102" depart="157.67">