<?xml version="1.0" encoding="UTF-8"?>

<!-- generated on 2024-06-14 22:48:25.820409 by randomTrips.py UNKNOWN
<configuration>
    <net-file value="config/osm.net.xml.gz"/>
    <route-file value="config/osm.passenger.trips.xml"/>
    <length value="True"/>
    <end value="10000.0"/>
    <insertion-density value="12.0"/>
</configuration>
-->

<!-- generated on 2024-06-14 22:48:25 by Eclipse SUMO duarouter Version 1.20.0
<configuration xmlns:xsi="http://www.w3.org/2001/XMLSchema-instance" xsi:noNamespaceSchemaLocation="http://sumo.dlr.de/xsd/duarouterConfiguration.xsd">

    <input>
        <net-file value="config/osm.net.xml.gz"/>
        <route-files value="trips.trips.xml"/>
    </input>

    <output>
        <output-file value="config/osm.passenger.trips.xml"/>
        <alternatives-output value="NUL"/>
    </output>

    <time>
        <begin value="0"/>
        <end value="10000.0"/>
    </time>

    <report>
        <no-warnings value="true"/>
        <ignore-errors value="true"/>
        <no-step-log value="true"/>
    </report>

</configuration>
-->

<routes xmlns:xsi="http://www.w3.org/2001/XMLSchema-instance" xsi:noNamespaceSchemaLocation="http://sumo.dlr.de/xsd/routes_file.xsd">
    <vehicle id="0" depart="0.00">
        <route edges="4018920 1167320823 4018921#0 4018921#1 -23901141 -4268885#1 -4268887#1 -41642955#1 -41642955#0 -287520731 4211578 -4827983 -392350950 4242654#0 48605566#0 368003200 368003202 208356734 4210569 807148182 23186963#1 368003201 -187007954#1"/>
    </vehicle>
    <vehicle id="1" depart="5.45">
        <route edges="-4268886 -41642955#1 -41642955#0 -287520731 4211578 -4827983 -392350950 -61333932#8 -61333932#6 -61333932#5 -4196547#1"/>
    </vehicle>
    <vehicle id="2" depart="10.91">
        <route edges="4211547#1 -4211547#1 -4211547#0 -396922880#1 -396922880#0 -396922879 287520731 41642955#0 41642955#1 4268887#0 4246872#0 4246872#3 54487560#0 54489190#0 54489190#2 54489542 403951938#0 4073077"/>
    </vehicle>
    <vehicle id="3" depart="16.36">
        <route edges="4936351 -4936351 -227604414#4 -227604414#2 -227604414#0 -362445600#2 -362445600#1 -362445600#0 -227604412 -4211277#1 -3849560#2 -3849560#0 4210569 807148180 61333932#1 61333932#2 61333932#4 61333932#6 61333932#7 4266043 4827983 -396922879 287520731 -287520731"/>
    </vehicle>
    <vehicle id="4" depart="21.81">
        <route edges="-694954584 4246876 970453666#0 708133847#0 -727020065#3 -727020065#1 -205316126"/>
    </vehicle>
    <vehicle id="5" depart="27.27">
        <route edges="-4196474#1 -4196471 -574218753#5 -574218753#4 -574218753#3 -574218753#1 -227604414#5 -227604414#4 -227604414#2 -227604414#0 -362445600#2 -362445600#1 -362445600#0 -227604412 -4211277#1 -3849560#2 -3849560#0 4210569 807148180 61333932#1 61333932#2 61333932#4 61333932#6 61333932#7 4242654#0 48605566#0 368003200 368003202 208356734"/>
    </vehicle>
    <vehicle id="6" depart="32.72">
        <route edges="-187007954#1 -481277903 -478819319#1 478819319#0 481277903 187007954#0 4210631#0 -48605566#1 -4242654#0 -61333932#8 -61333932#6 -61333932#5 -4196547#1 -4196547#0 -4211544#2 4189859#0 4189859#1 4189859#2 -4189859#2"/>
    </vehicle>
    <vehicle id="7" depart="38.17">
        <route edges="4018945#0 -4018945#1 4242657#0 236680742"/>
    </vehicle>
    <vehicle id="8" depart="43.63">
        <route edges="-4196474#2 -4196472 -574218753#3 -574218753#1 -227604414#5 -227604414#4 -227604414#2 -227604414#0 -362445600#2 -362445600#1 -362445600#0 -227604412 -4211277#1 -3849560#2 -3849560#0 4210569 807148180 61333932#1 61333932#2 61333932#4 61333932#6 61333932#7 4266043 4827983 361257610#0 361257610#1 361257610#2 361257610#3 361257610#4 361257610#5 361257610#6 361255883"/>
    </vehicle>
    <vehicle id="9" depart="49.08">
        <route edges="4277778#3 -4277778#3 -4277778#2 -4277778#1 -4277778#0 4196547#1 61333932#4 61333932#6 61333932#7 4242654#0 4242654#1 970453666#0 708133847#0 391192166#0 1222725745 -1222725745"/>
    </vehicle>
    <vehicle id="10" depart="54.53">
        <route edges="4277778#1 -4277778#1 -4277778#0 -4196547#0 -4211544#2 -4211544#0 4211543 4189862"/>
    </vehicle>
    <vehicle id="12" depart="65.44">
        <route edges="61333932#7 4242654#0 48605566#0 368003200 368003202 208356734 3849560#0 3849560#1 157694252 157694255 -157694253#0 4211277#2 362445600#0 362445600#1 362445600#2 227604413 227604414#1 4287690 -204535887 -4288424#1 -4288424#0"/>
    </vehicle>
    <vehicle id="14" depart="76.35">
        <route edges="4287690 4287678#0 4287678#1 -4287689 -227604414#0 -362445600#2 -362445600#1 -362445600#0 -227604412 -4211277#1 -3849560#2 -3849560#0 4210569 807148180 61333932#1 61333932#2 61333932#4 61333932#6 -365599112#1 -365599112#0 365599112#0"/>
    </vehicle>
    <vehicle id="15" depart="81.80">
        <route edges="4277778#2 -4277778#2 -4277778#1 -4277778#0 -4196547#0 -4211544#2 -4211544#0 4211543"/>
    </vehicle>
    <vehicle id="16" depart="87.25">
        <route edges="23186963#1 368003201 -187007954#1 -481277903 -478819319#1 478819319#0 481277903 187007954#0 4210631#0 -48605566#1 4242654#1 970453666#0 708133847#0"/>
    </vehicle>
    <vehicle id="17" depart="92.71">
        <route edges="-4996692 4936976#2 54497794#0 -253261928 253261928"/>
    </vehicle>
    <vehicle id="18" depart="98.16">
        <route edges="4287678#2 4287678#3 4287687 -362445600#1 -362445600#0 -227604412 -4211277#1 -3849560#2 -3849560#0 3849560#0"/>
    </vehicle>
    <vehicle id="20" depart="109.07">
        <route edges="41964680 -574218753#9 -574218753#8 -574218753#7 -574218753#5 -574218753#4 -574218753#3 -574218753#1 -227604414#5 -227604414#4 -227604414#2 -227604414#0 -362445600#2 -362445600#1 -362445600#0 -227604412 -4211277#1 -3849560#2 -3849560#0 4210569 807148182 23186963#1 368003201 -187007954#1 -227758448"/>
    </vehicle>
    <vehicle id="21" depart="114.52">
        <route edges="-4211543 4211544#0 4211544#2 4196549 4277778#0 4277778#1 4277778#2 -4277778#2"/>
    </vehicle>
    <vehicle id="22" depart="119.98">
        <route edges="-263939617 365599112#1 -61333932#6 -61333932#5 -4196547#1 -4196547#0 -4211544#2 -4211577#1 -224125601 -4211579 -4211547#0"/>
    </vehicle>
    <vehicle id="23" depart="125.43">
        <route edges="-326819232 727020065#2 -708133847#1 -970453666#2 -4242654#1 -4242654#0 4266043 4827983 -396922879 5118662 4268890#0 -4268890#0"/>
    </vehicle>
    <vehicle id="25" depart="136.34">
        <route edges="-4936352 4936352 227604414#4 227604414#5 574218753#0 574218753#3 574218753#4 574218753#5 4196471 -4196471"/>
    </vehicle>
    <vehicle id="26" depart="141.79">
        <route edges="-4267153 4211581#2 -392350950 4242654#0 48605566#0 368003200 368003202 23268804 -23268778 5197319"/>
    </vehicle>
    <vehicle id="27" depart="147.24">
        <route edges="4018943#1 4936976#0 4936976#2 54497794#0 54497794#1 975294056 -4242656#1 -708133847#1 -970453666#2 -4242654#1 48605566#0 368003200 368003202"/>
    </vehicle>
    <vehicle id="28" depart="152.70">
        <route edges="-4049619#0 -3017274 -4018918 -346948677 -906641986#1 -906641986#0 -906641987#0 -361255883 -361257610#6 -361257610#5 -361257610#4 -361257610#3 -361257610#2 -361257610#1 -361257610#0 396922880#0 396922880#1 4211547#0 4211547#1 4211545 4211543"/>
    </vehicle>
    <vehicle id="29" depart="158.15">
        <route edges="-403951938#0 -54489542 -54489190#2 -54489190#2.35 4936976#0 4936976#2 54497794#0 54497794#1 975294056 -4242656#1 -708133847#1 -970453666#2 -4242654#1 48605566#0 368003200 368003202 208356734 3849560#0 3849560#1 -5001383#5 -5001383#3"/>
    </vehicle>
    <vehicle id="30" depart="163.60">
        <route edges="906641986#1 906641986#2 26272023 4018923#0"/>
    </vehicle>
    <vehicle id="31" depart="169.06">
        <route edges="26272023 4018923#0 4018921#1 -23901141 -4268885#1 4246872#0 4246872#3 170718538 433097225 54497794#0 54497794#1 975294056 1222725745 236680742 -40893861#2 40893861#0"/>
    </vehicle>
    <vehicle id="32" depart="174.51">
        <route edges="4287689 -4287689 227604414#1 227604414#4 227604414#5 574218753#0 -4262030#2 -4262030#1 4262031 4287677#0 4262035"/>
    </vehicle>
    <vehicle id="33" depart="179.96">
        <route edges="-4211543 -4211545 4211576 -224125601"/>
    </vehicle>
    <vehicle id="34" depart="185.42">
        <route edges="-4287683#2 -4287683#0 4287678#1 -4287689 -227604414#0 -362445600#2 -362445600#1 -362445600#0 -227604412 -4211277#1 -3849560#2 -3849560#0 4210569 807148180 61333932#1 61333932#2 61333932#4 61333932#6 61333932#7 4266043 4827983 -396922879 4267174 -4267173"/>
    </vehicle>
    <vehicle id="35" depart="190.87">
        <route edges="-4196471 574218753#6 574218753#8 574218753#9 574218753#10 574218753#11"/>
    </vehicle>
    <vehicle id="36" depart="196.32">
        <route edges="481277903 187007954#0 4210631#0 368003200 368003202 208356734 3849560#0 3849560#1 157694252 157694255 -157694253#0 4211277#2 362445600#0 362445600#1 362445600#2 227604413 4287689 -4287678#1 4287683#0 -4287684"/>
    </vehicle>
    <vehicle id="37" depart="201.78">
        <route edges="4048467 -906641987#0 -361255883 -361257610#6 -361257610#5 -361257610#4 -361257610#3 -361257610#2 -361257610#1 -361257610#0 -4827983 -392350950 4242654#0 48605566#0 368003200 368003202 208356734 970453667#0 3850464 1104605979#0 1104605979#1 -5197316"/>
    </vehicle>
    <vehicle id="38" depart="207.23">
        <route edges="5036921#0 5036921#1 -3850464 -970453667#1 4210569 807148180 61333932#1 61333932#2 61333932#4 61333932#6 61333932#7 4242654#0 4242654#1 970453666#0 708133847#0 391192166#0 1222725745 236680742 23177745 4626809 706192405 242737762#0 242737762#1 242737762#2 4066699#0 158080156#1 158080156#2 618008355 964095500 60712787 -4073134#1 4073134#0 1202586595#0"/>
    </vehicle>
    <vehicle id="39" depart="212.68">
        <route edges="-4262034 4262034 -4262031 4262030#1 4262030#2 -574218753#1 -227604414#5 -227604414#4 -227604414#2 -227604414#0 -362445600#2 -362445600#1 -362445600#0 -227604412 -4211277#1 -3849560#2 -3849560#0 4210569 807148180 61333932#1 61333932#2 61333932#4 61333932#6 61333932#7 4266043 4827983 -396922879 287520731 41642955#0 41642955#1 4268887#0 4246872#0 4246872#3 -4246872#3"/>
    </vehicle>
    <vehicle id="40" depart="218.14">
        <route edges="276566046 123564625#1 177845942 -157694253#1 -157694253#0 4211277#2 362445600#0 362445600#1 362445600#2 227604413 227604414#1 227604414#4 227604414#5 574218753#0 -4262030#2 -4262030#1 4262032#0 4262033 -4262033"/>
    </vehicle>
    <vehicle id="41" depart="223.59">
        <route edges="346948672#0 232181901 -23901141 -4268885#1 4246872#0 4246872#3 54487560#0 4936976#0 4936976#2"/>
    </vehicle>
    <vehicle id="42" depart="229.04">
        <route edges="-54489542 -54489190#2 -54489190#2.35 4936976#0 4936976#2 54497794#0 54497794#1 975294056 -4242656#1 -708133847#1 -970453666#2 -4242654#1 48605566#0 368003200 368003202 208356734 3849560#0 3849560#1 157694252 157694255 -157694253#0 4211277#2 362445600#0 362445600#1 362445600#2 227604413 227604414#1 227604414#4 227604414#5 574218753#0 574218753#3 4196472 -4196474#1"/>
    </vehicle>
    <vehicle id="43" depart="234.50">
        <route edges="970453667#0 -970453667#1 4210569 807148180 61333932#1 61333932#2 61333932#4 61333932#6 61333932#7 4266043 4827983 361257610#0 361257610#1 361257610#2 361257610#3 361257610#4 361257610#5 361257610#6 361255883 906641987#0 906641987#1 906641986#1 4018917 4018918 3017274 4049619#0 4391620 214779355"/>
    </vehicle>
    <vehicle id="44" depart="239.95">
        <route edges="-287522412 -4267173 -287520731 4211578 -4827983 -392350950 4242654#0 48605566#0 368003200 368003202 208356734 4210569 807148182 23186963#1 368003201 -187007954#1 -227758448"/>
    </vehicle>
    <vehicle id="45" depart="245.40">
        <route edges="-346948677 -906641986#1 -906641986#0 -906641987#0 -361255883 -361257610#6 -361257610#5 -361257610#4 -361257610#3 -361257610#2 -361257610#1 -361257610#0 396922880#0"/>
    </vehicle>
    <vehicle id="46" depart="250.86">
        <route edges="4268889 -4268889 -287520731 4211578 -4827983 -392350950 4242654#0 4242654#1 -694954584"/>
    </vehicle>
    <vehicle id="47" depart="256.31">
        <route edges="-23268778 5197319 23186963#0 23186963#1 368003201 -187007954#1 -481277903 -478819319#1 478819319#0 481277903 187007954#0 4210631#0 368003200 368003202 208356734 3849560#0 3849560#1 -5001383#5"/>
    </vehicle>
    <vehicle id="48" depart="261.76">
        <route edges="970453667#0 -970453667#1 4210569 807148180 61333932#1 61333932#2 61333932#4 61333932#6 61333932#7 4242654#0 48605566#0 368003200 368003202 23268804 -23268778 5197319 23186963#0"/>
    </vehicle>
    <vehicle id="49" depart="267.22">
        <route edges="708133847#0 391192166#0 1222725745 236680742 23177745 -4018945#1 1210308506 704214696 -4246872#3 -4246872#2 4268885#0 23901141 -232181901 -346948672#3 -906641986#2 4018917 4018918 3017274 4049619#0 4391620 -4391619#1 -4391619#0 4391619#0"/>
    </vehicle>
    <vehicle id="51" depart="278.12">
        <route edges="4073118 362453234 158080156#1 1148931721#0 -403951938#2 -403951938#1 -403951938#0 -54489542 -54489190#2 -54489190#2.35 4936976#0 4936976#2 54497794#0 54497794#1 975294056 -4242656#1 -708133847#1 -970453666#2 -4242654#1 48605566#0 368003200 368003202 23268804"/>
    </vehicle>
    <vehicle id="52" depart="283.58">
        <route edges="-4267153 4211581#2 4827983 361257610#0 361257610#1 361257610#2 361257610#3 361257610#4 361257610#5 361257610#6 361255883 906641987#0 906641987#1 906641986#1 906641986#2 26272023 4018923#0"/>
    </vehicle>
    <vehicle id="53" depart="289.03">
        <route edges="-358539533 -3585395330 -224125601 -4211579 -4211547#0 -396922880#1 -396922880#0 -396922879 5118662 276992921#0 276992921#1 276992921#2 -906641986#0"/>
    </vehicle>
    <vehicle id="54" depart="294.48">
        <route edges="1104605978 4211277#0 -4211277#1 -3849560#2 -3849560#0 4210569 807148180 61333932#1 61333932#2 61333932#4"/>
    </vehicle>
    <vehicle id="55" depart="299.94">
        <route edges="4806901 -157694253#1 -157694253#0 4211277#2 362445600#0 362445600#1 362445600#2 227604413 227604414#1 227604414#4 227604414#5 574218753#0 -4262030#2 -4262030#1 4262031 -4262034"/>
    </vehicle>
    <vehicle id="56" depart="305.39">
        <route edges="177845942 -157694253#1 -157694253#0 -4211277#1 -3849560#2 -3849560#0 4210569 807148180 61333932#1 61333932#2 61333932#4 61333932#6 61333932#7 4242654#0 4242654#1 970453666#0 708133847#0 391192166#0 1222725745 236680742 23177745 4626809 706192405 242737762#0 242737762#1 242737762#2 4066699#0 158080156#1 158080156#2 -4073063#2"/>
    </vehicle>
    <vehicle id="58" depart="316.30">
        <route edges="-4277780#1 -4277780#0 -4277778#0 -4196547#0 -4211544#2 -4211577#1 -224125601 -4211579 -4211547#0 -396922880#1 -396922880#0 361257610#0 361257610#1 361257610#2 361257610#3 361257610#4 361257610#5 361257610#6 361255883 906641987#0 906641987#1 906641986#1 906641986#2 26272023 4018923#0"/>
    </vehicle>
    <vehicle id="59" depart="321.75">
        <route edges="368003200 368003202 208356734 4210569 807148180 61333932#1 61333932#2 61333932#4 61333932#6 61333932#7 4266043 4827983 -396922879"/>
    </vehicle>
    <vehicle id="60" depart="327.21">
        <route edges="4252292 4806900#1 4806901 -157694253#1 -157694253#0 -4211277#1 -3849560#2 -3849560#0 4210569 807148182 23186963#1 368003201 -187007954#1 -481277903 -478819319#1 -221573098#2 -23268933#1 23268933#1"/>
    </vehicle>
    <vehicle id="61" depart="332.66">
        <route edges="4266043 -392350950 4242654#0 48605566#0 368003200 368003202 208356734 4210569 807148182 23186963#1"/>
    </vehicle>
    <vehicle id="62" depart="338.11">
        <route edges="-106751765#0 4277779#1 -4277781#0 -61333932#0 -970455621 3849560#0 3849560#1 157694252 157694255 -157694253#0 4211277#2 362445600#0 362445600#1 362445600#2 227604413 227604414#1 4287690 -4287690"/>
    </vehicle>
    <vehicle id="64" depart="349.02">
        <route edges="4829401 -362454140 4246872#3 170718538 433097225 54497794#0 54497794#1 975294056 -4242656#1 -708133847#1 -970453666#2 -4242654#1 48605566#0 368003200 368003202 208356734 3849560#0 3849560#1 157694252 157694255 -157694253#0 4211277#2 362445600#0 362445600#1 -4287687 4287678#4"/>
    </vehicle>
    <vehicle id="65" depart="354.47">
        <route edges="-4277783 -4277778#2 -4277778#1 -4277778#0 4196547#1 61333932#4 61333932#6 61333932#7 4242654#0 48605566#0 368003200 368003202 23268804 -23268778"/>
    </vehicle>
    <vehicle id="66" depart="359.93">
        <route edges="4827983 -4827983 -392350950 4242654#0 48605566#0 368003200 368003202 208356734 3849560#0 3849560#1 157694252 157694255 -157694253#0 4211277#2 362445600#0 362445600#1 362445600#2 227604413 227604414#1 227604414#4 227604414#5 574218753#0 574218753#3 574218753#4 574218753#5 574218753#6"/>
    </vehicle>
    <vehicle id="68" depart="370.83">
        <route edges="-23268961#1 23268962 221573098#1 478819319#0 481277903 187007954#0 4210631#0 368003200 368003202 208356734 3849560#0 3849560#1 -5001383#5 4252291"/>
    </vehicle>
    <vehicle id="69" depart="376.29">
        <route edges="4262029 -397147638 -574218753#4 -574218753#3 -574218753#1 -227604414#5 -227604414#4 -227604414#2 -227604414#0 -362445600#2"/>
    </vehicle>
    <vehicle id="71" depart="387.19">
        <route edges="-4262034 4262034 -4262031 4262030#1 4262030#2 -574218753#1 -227604414#5 -227604414#4 -227604414#2 -227604414#0 -362445600#2 -362445600#1 -362445600#0 -227604412 -4211277#1 -3849560#2 -3849560#0 4210569 807148180 61333932#1 61333932#2 61333932#4 61333932#6 61333932#7 4266043 4827983 -396922879 5118662 276992921#0 276992921#1 -477731931 477731931"/>
    </vehicle>
    <vehicle id="72" depart="392.65">
        <route edges="-694954584 4246876 -4242654#1 48605566#0 368003200 368003202 208356734 3849560#0 3849560#1 157694252 157694255 -157694253#0 4211277#2 362445600#0 362445600#1 362445600#2 227604413 227604414#1 227604414#4 227604414#5 574218753#0 4196473#0 4196473#1 -4196474#2 -4196472"/>
    </vehicle>
    <vehicle id="73" depart="398.10">
        <route edges="23268804 -23268778 5197319 23186963#0 23186963#1 368003201 -187007954#1 -481277903 -478819319#1 478819319#0 481277903 187007954#0 4210631#0 -48605566#1 -4242654#0 4266043 4827983 396922880#0 396922880#1 4211547#0 4211547#1 4211545 4211543"/>
    </vehicle>
    <vehicle id="74" depart="403.55">
        <route edges="-4189862 -4211543 4211544#0 4211544#2 4196549 4196547#1 -61333932#3 -61333932#1 -61333932#0 -970455621 3849560#0 3849560#1 157694252 157694255 -157694253#0 4211277#2 362445600#0 362445600#1 -4287687 -4287678#3 -4287678#2"/>
    </vehicle>
    <vehicle id="75" depart="409.01">
        <route edges="970453666#0 -970453666#2 -4242654#1 -4242654#0 4266043 4827983 361257610#0 361257610#1 361257610#2 361257610#3 361257610#4 361257610#5 361257610#6 361255883 906641987#0 -4048467 4048467"/>
    </vehicle>
    <vehicle id="76" depart="414.46">
        <route edges="-906641986#1 -906641986#0 -906641987#0 -361255883 -361257610#6 -361257610#5 -361257610#4 -361257610#3 -361257610#2 -361257610#1 -361257610#0 -4827983 -392350950 4242654#0 48605566#0 368003200 368003202 208356734 3849560#0 3849560#1 157694252 157694255 -157694253#0 4211277#2 362445600#0 362445600#1 362445600#2 227604413"/>
    </vehicle>
    <vehicle id="77" depart="419.91">
        <route edges="-361257610#0 -4827983 -392350950 4242654#0 48605566#0 368003200 368003202 208356734 3849560#0 3849560#1 157694252 157694255 -157694253#0 -4211277#1"/>
    </vehicle>
    <vehicle id="78" depart="425.37">
        <route edges="-4288424#0 4288424#0 4288424#1 204535887 -4287690 -227604414#2 -227604414#0 -362445600#2 -362445600#1 -362445600#0 -227604412 -4211277#1 -3849560#2 -3849560#0 4210569 807148180 61333932#1 61333932#2 61333932#4 61333932#6 61333932#7 4242654#0 4242654#1 970453666#0 708133847#0 -727020065#3 39953271 -326819231 359880933"/>
    </vehicle>
    <vehicle id="79" depart="430.82">
        <route edges="-4211544#0 4211544#0 4211544#2 4196549 4196547#1 -61333932#3 -61333932#1 -61333932#0 -970455621 3849560#0 3849560#1 157694252 157694255 -157694253#0 4211277#2 362445600#0 362445600#1 362445600#2 227604413 227604414#1 227604414#4 227604414#5 574218753#0 4196473#0 4196473#1 -4196474#2"/>
    </vehicle>
    <vehicle id="80" depart="436.27">
        <route edges="-23901141 23901141 -232181901 -346948672#3 -906641986#2 4018917"/>
    </vehicle>
    <vehicle id="81" depart="441.73">
        <route edges="-4211543 -4211545 -4211547#1 -4211547#0 -396922880#1 -396922880#0 -396922879 287520731 41642955#0 41642955#1 4268887#0 4268885#0 23901141 -232181901 4958799"/>
    </vehicle>
    <vehicle id="82" depart="447.18">
        <route edges="4391619#0 4391619#1 214779355 -4018918 -346948677 906641986#2 346948672#0 232181901 -23901141"/>
    </vehicle>
    <vehicle id="83" depart="452.63">
        <route edges="-4211581#1 4211581#1 4211581#2 4827983 -396922879 287520731 41642955#0 41642955#1 4268887#0 4246872#0 4246872#3 54487560#0 -403951935 -4018943#0 4073065"/>
    </vehicle>
    <vehicle id="84" depart="458.09">
        <route edges="-4196472 -574218753#3 -574218753#1 -227604414#5 -227604414#4 -227604414#2 -227604414#0 -362445600#2 -362445600#1 -362445600#0 -227604412 -4211277#1 -3849560#2 -3849560#0 4210569 807148180 61333932#1 61333932#2 61333932#4 61333932#6 -365599112#1 -365599112#0"/>
    </vehicle>
    <vehicle id="85" depart="463.54">
        <route edges="5197319 23186963#0 23186963#1 368003201 -187007954#1 -481277903 -478819319#1 -221573098#2 -23268933#1 -30955698 30955698"/>
    </vehicle>
    <vehicle id="87" depart="474.45">
        <route edges="4277778#2 -4277778#2 -4277778#1 -4277778#0 4196547#1 61333932#4 61333932#6 61333932#7 4242654#0 4242654#1 970453666#0 708133847#0 391192166#0 1222725745 236680742 -40893861#2"/>
    </vehicle>
    <vehicle id="88" depart="479.90">
        <route edges="-30955698 30955698 23268933#1 221573098#1 478819319#0 481277903 187007954#0 4210631#0 -48605566#1 4242654#1 970453666#0 708133847#0 -727020065#3 -727020065#1 -727020065#0 4288382#0 4288382#1 -4288383 -7724604"/>
    </vehicle>
    <vehicle id="89" depart="485.35">
        <route edges="-694954584 4246876 -4242654#1 48605566#0 368003200 368003202 208356734 4210569 807148182 23186963#1 368003201 -187007954#1 -227758448 130995873"/>
    </vehicle>
    <vehicle id="90" depart="490.81">
        <route edges="4211277#2 362445600#0 -362445600#0 -227604412 -4211277#1 -3849560#2 -3849560#0 4210569 807148180 61333932#1 61333932#2 61333932#4 61333932#6 61333932#7 4266043 4827983 -396922879 287520731 41642955#0 41642955#1 4268887#0 4246872#0 4246872#3 54487560#0 -403951935 -4018943#0 -5155576#1 4073066 4073067"/>
    </vehicle>
    <vehicle id="92" depart="501.71">
        <route edges="-574218753#7 -574218753#5 -574218753#4 -574218753#3 -574218753#1 -227604414#5 -227604414#4 -227604414#2 -227604414#0 -362445600#2 -362445600#1 -362445600#0 -227604412 -4211277#1 -3849560#2 -3849560#0 4210569 807148180 61333932#1 61333932#2 61333932#4 61333932#6 61333932#7 4266043 4827983 361257610#0 361257610#1 361257610#2 361257610#3 361257610#4 361257610#5 361257610#6 361255883 906641987#0 906641987#1 906641986#1 4018917 4018918 3017274 4049619#0 4391620 -4391619#1 -4391619#0"/>
    </vehicle>
    <vehicle id="93" depart="507.17">
        <route edges="4391619#1 214779355 -4018918 -346948677 906641986#2 346948672#0 232181901 -23901141 -4268885#1 4246872#0 4246872#3 170718538 433097225 54497794#0 54497794#1 975294056 -4242656#1 -708133847#1 4247017#0 4247017#1 4247019 -4247019"/>
    </vehicle>
    <vehicle id="94" depart="512.62">
        <route edges="-40893861#2 40893861#0 23177745 -4018945#1 4242657#0 -1222725745 -4242656#1 -708133847#1 -970453666#2 -4242654#1 -4242654#0 -61333932#8 -61333932#6 -61333932#5 -61333932#3 -4277780#1 4277782 106751765#0"/>
    </vehicle>
    <vehicle id="95" depart="518.08">
        <route edges="-694954584 4246876 -4242654#1 -4242654#0 4266043 4827983 -396922879 5118662 4268890#0 4268890#1 -4268890#1"/>
    </vehicle>
    <vehicle id="96" depart="523.53">
        <route edges="-4247019 4247019 51301314"/>
    </vehicle>
    <vehicle id="98" depart="534.44">
        <route edges="24062643 61333932#6 61333932#7 4266043 4827983 396922880#0 -231147556"/>
    </vehicle>
    <vehicle id="99" depart="539.89">
        <route edges="975294056 -4242656#1 -708133847#1 -970453666#2 -4242654#1 48605566#0 368003200 368003202 208356734 3849560#0 3849560#1 157694252 157694255 -157694253#0 4211277#2 362445600#0 362445600#1 362445600#2 227604413 4287689 -4287678#1 4287683#0 4287683#2"/>
    </vehicle>
    <vehicle id="100" depart="545.34">
        <route edges="704090237#0 4018945#0 -4018945#1 4242657#0 -1222725745 -4242656#1 -708133847#1 -970453666#2 -4242654#1 48605566#0 368003200 368003202 208356734 3849560#0 3849560#1 157694252 4806900#0 4806900#1 4806901 -227409913 -227604416 5144707 -5144708#0 5144708#0"/>
    </vehicle>
    <vehicle id="101" depart="550.80">
        <route edges="4287771 -970453667#1 4210569 807148180 61333932#1 61333932#2 61333932#4 61333932#6 61333932#7 4266043 4827983 361257610#0 361257610#1 361257610#2 361257610#3 361257610#4 361257610#5 361257610#6 361255883 906641987#0 -4048467"/>
    </vehicle>
    <vehicle id="103" depart="561.70">
        <route edges="-574218753#10 -574218753#9 -574218753#8 -574218753#7 -574218753#5 -574218753#4 -574218753#3 -574218753#1 -227604414#5 -227604414#4 -227604414#2 -227604414#0 -362445600#2 -362445600#1 -362445600#0 -227604412 -4211277#1 -3849560#2 -3849560#0 4210569 807148180 61333932#1 61333932#2 61333932#4 61333932#6 61333932#7 4242654#0 48605566#0 368003200 368003202 23268804 -23268778"/>
    </vehicle>
    <vehicle id="104" depart="567.16">
        <route edges="-4996692 4936976#2 54497794#0 54497794#1 975294056 -4242656#1 -708133847#1 -970453666#2 -4242654#1 48605566#0 368003200 368003202 208356734 3849560#0 3849560#1 157694252 4806900#0 4806900#1 4806901 -227409913 904404508"/>
    </vehicle>
    <vehicle id="105" depart="572.61">
        <route edges="-4262034 4262034 -4262031 4262030#1 4262030#2 -574218753#1 -227604414#5 -227604414#4 -227604414#2 -227604414#0 -362445600#2 -362445600#1 -362445600#0 -227604412 -4211277#1 -3849560#2 -3849560#0 4210569 807148180 61333932#1 61333932#2 61333932#4 61333932#6 61333932#7 4266043 4827983 -396922879 287520731 4267173"/>
    </vehicle>
    <vehicle id="106" depart="578.06">
        <route edges="1104605978 4211277#0 -4211277#1 -3849560#2 -3849560#0 4210569 807148180 61333932#1 61333932#2 61333932#4 61333932#6 61333932#7 4242654#0 4242654#1 970453666#0 708133847#0 -708133847#1"/>
    </vehicle>
    <vehicle id="107" depart="583.52">
        <route edges="61333932#7 4242654#0 4242654#1 970453666#0"/>
    </vehicle>
    <vehicle id="108" depart="588.97">
        <route edges="253261928 54497794#1 975294056 -4242656#1 -708133847#1 -970453666#2 -4242654#1 48605566#0 368003200 368003202 208356734 3849560#0 3849560#1 157694252 157694255 -157694253#0 4211277#2 362445600#0 362445600#1 362445600#2 227604413 227604414#1 227604414#4 227604414#5 574218753#0 4196473#0 4196473#1 -4196474#2 4196474#2"/>
    </vehicle>
    <vehicle id="109" depart="594.42">
        <route edges="-396922880#0 -4827983 -392350950 -61333932#8 -61333932#6 -61333932#5 -61333932#3 -4277780#1"/>
    </vehicle>
    <vehicle id="111" depart="605.33">
        <route edges="23268933#1 221573098#1 478819319#0 481277903 187007954#0 4210631#0 -48605566#1 -4242654#0 4266043 4827983 -396922879 287520731 41642955#0 41642955#1 4268887#0 4246872#0"/>
    </vehicle>
    <vehicle id="112" depart="610.78">
        <route edges="-23268778 5197319 23186963#0 23186963#1 368003201 -187007954#1 -481277903 -478819319#1 478819319#0 481277903 187007954#0 4210631#0 -48605566#1 -4242654#0 -61333932#8 -61333932#6 -61333932#5 -4196547#1 -4196547#0 -4211544#2 -4211577#1 358539533 358539533.94"/>
    </vehicle>
    <vehicle id="113" depart="616.24">
        <route edges="187007954#0 4210631#0 368003200 368003202 208356734 3849560#0 3849560#1 157694252 157694255 -157694253#0 4211277#2 362445600#0 362445600#1 -4287687 4287678#4 4288423"/>
    </vehicle>
    <vehicle id="115" depart="627.14">
        <route edges="-263939617 365599112#1 61333932#7 4242654#0 4242654#1 970453666#0 708133847#0 391192166#0 1222725745 236680742 23177745 4626809 706192405 242737762#0 242737762#1 4627671 4073114#1 4073114#2 4073124 -4073124"/>
    </vehicle>
    <vehicle id="121" depart="659.86">
        <route edges="227604414#5 574218753#0 -574218753#1 -227604414#5 -227604414#4 -227604414#2 -227604414#0 -362445600#2 -362445600#1 -362445600#0 -227604412 -4211277#1 -3849560#2 -3849560#0 4210569 807148180 61333932#1 61333932#2 61333932#4 61333932#6 61333932#7 4242654#0 48605566#0 368003200 368003202 23268804 -23268778 5197319"/>
    </vehicle>
    <vehicle id="122" depart="665.32">
        <route edges="-4196468 -4196468.113 -574218753#10 -574218753#9 -574218753#8 -574218753#7 4196471 4196474#1"/>
    </vehicle>
    <vehicle id="123" depart="670.77">
        <route edges="-4211581#2 4211581#2 -392350950 4242654#0 48605566#0 368003200 368003202 208356734 970453667#0 3850464 1104605979#0 1104605979#1 -5197316"/>
    </vehicle>
    <vehicle id="124" depart="676.22">
        <route edges="4073065 -4073065 4018943#0 4018943#1 4936976#0 4936976#2 54497794#0 54497794#1 975294056 -4242656#1 -708133847#1 -970453666#2 -4242654#1 -4242654#0 -61333932#8 -61333932#6 -61333932#5 -61333932#3 -61333932#1 4277781#0 4277781#1 4277786#0 -4277786#0 -4277781#1"/>
    </vehicle>
    <vehicle id="125" depart="681.68">