<?xml version="1.0" encoding="UTF-8"?>

<!-- generated on 2024-06-09 16:26:36.156744 by randomTrips.py UNKNOWN
<configuration>
    <net-file value="config/osm.net.xml.gz"/>
    <route-file value="config/osm.passenger.trips.xml"/>
    <length value="True"/>
    <end value="10000.0"/>
    <insertion-density value="12.0"/>
</configuration>
-->

<!-- generated on 2024-06-09 16:26:35 by Eclipse SUMO duarouter Version 1.20.0
<configuration xmlns:xsi="http://www.w3.org/2001/XMLSchema-instance" xsi:noNamespaceSchemaLocation="http://sumo.dlr.de/xsd/duarouterConfiguration.xsd">

    <input>
        <net-file value="config/osm.net.xml.gz"/>
        <route-files value="trips.trips.xml"/>
    </input>

    <output>
        <output-file value="config/osm.passenger.trips.xml"/>
        <alternatives-output value="NUL"/>
    </output>

    <time>
        <begin value="0"/>
        <end value="10000.0"/>
    </time>

    <report>
        <no-warnings value="true"/>
        <ignore-errors value="true"/>
        <no-step-log value="true"/>
    </report>

</configuration>
-->

<routes xmlns:xsi="http://www.w3.org/2001/XMLSchema-instance" xsi:noNamespaceSchemaLocation="http://sumo.dlr.de/xsd/routes_file.xsd">
    <vehicle id="0" depart="0.00">
        <route edges="182567485#1 -688396694 -1110047457#2 -1110047457#1 -1110047457#0 186145511#1 186145511#2 186145511#3 186145511#4 186145511#5 186145511#6 186145511#7 58401204#0 58401204#1 58401204#2 58401204#3 58401204#4 58401204#5 58401204#6 58401204#7 58401204#8 186185733#6 186185733#7 186185733#9 -190062915#1 -190062915#0 -98897100#5 98897055#4 98897055#6 98897055#7 98897055#8 98897055#10 99839658#2 -170316859#12"/>
    </vehicle>
    <vehicle id="1" depart="2.41">
        <route edges="-190064679#0 190064679#0 190064679#1 186185737 -58401204#0 -186145511#7 -186145511#6 -186145511#5 -186145511#4 -186145511#3 -186145511#2 186160018#0 186160018#1 186160018#2 -186160018#2"/>
    </vehicle>
    <vehicle id="2" depart="4.81">
        <route edges="186396281#2 186396281#3 186396281#4 820242690 98897100#0 98897100#1 98897100#2 98897100#3 98897100#4 98897100#5 190062915#0 190062915#1 -186185733#9 -186185733#7 -186185733#6 -58401204#8 -58401204#7 -58401204#6 -58401204#5 -58401204#4 -58401204#3 -58401204#2 -58401204#1 -58401204#0 -186145511#7 -186145511#6 -182518176#4 -182518176#3 182903320#0"/>
    </vehicle>
    <vehicle id="3" depart="7.22">
        <route edges="98897108#0 98897108#1 98897108#3 1054766440 1054766439 294669647#0 182516726 186185720#3 186185720#4 -182516769"/>
    </vehicle>
    <vehicle id="4" depart="9.62">
        <route edges="-99839727 -98897055#8 -98897055#7 -98897055#6 -98897055#4 -98897055#3 -98897055#2 -98897055#1 -98897055#0 190062914#0 31738930#13 31738930#14 294669644 294669642#0 294669642#1 294669642#3 830281113 830281112 182263860#0 182263854#0 -182263854#0"/>
    </vehicle>
    <vehicle id="5" depart="12.03">
        <route edges="-186155232#1 -186155232#0 -830281102#1 -830281102#0 -830281097#1 -830281097#0 -830281101 -99836114#4 -99836114#3 -99836114#2 -99836114#1 -99836114#0 -182263860#6 -182263860#5 -182263860#3 -182263860#2 -182263860#1 -182263860#0 186252900 830281111 830281110 1054761589#0 -31738926#2 -31738926#1 -31738926#0 -182256519#1 182256519#1"/>
    </vehicle>
    <vehicle id="6" depart="14.44">
        <route edges="-170316859#5 99839628#5 -98897055#0 190062914#0 -190064675#3 -190064675#2 -190064675#0 -58401204#4 -58401204#3 -58401204#2 -58401204#1 -58401204#0 294669643#7 -182903322"/>
    </vehicle>
    <vehicle id="7" depart="16.84">
        <route edges="182567498 -182567498 -182567484#0 -1110047457#1 -1110047457#0 186145511#1 186145511#2 186145511#3 186145511#4 186145511#5 186145511#6 186145511#7 58401204#0 58401204#1 58401204#2 58401204#3 58401204#4 58401204#5 58401204#6 58401204#7 58401204#8 58401204#9 58401204#10 58401204#11 58401204#12 58401204#13 58401204#14 58401204#15 182516766#0 182516745"/>
    </vehicle>
    <vehicle id="8" depart="19.25">
        <route edges="-186155236#0 1149388756#0 1149388756#1 -830281097#1 -830281097#0 -830281101 -99836114#4 -99836114#3 -99836114#2 -99836114#1 -99836114#0 -182263860#6 -182263860#5 -182263860#3 -182263860#2 -182263860#1 -182263860#0 186252900 830281111 830281110 1108574774#0 1108574774#1 1108574774#2 1109659897 182518160#1 182518160#2"/>
    </vehicle>
    <vehicle id="9" depart="21.66">
        <route edges="62124263#3 62124263#4 688396685 688396682#0 1110690343#0 1110690343#2 1110690343#3 1110690343#4 186145511#0 186145511#1 186145511#2 186145511#3 186145511#4 186145511#5 186145511#6 186145511#7 294669643#7 294669643#8 294669643#9 294669643#10 294669643#11 1054766438 1054766440 294669649#0 99839683 1105449988#1 -1105449988#1"/>
    </vehicle>
    <vehicle id="10" depart="24.06">
        <route edges="58401204#6 58401204#7 58401204#8 186185733#6 186185733#7 186185733#9 -190062915#1 -190062915#0 -98897100#5 -98897100#4 -98897100#3 -98897100#2 -98897100#1 -98897100#0 -820242690 -186155236#5 -186155236#4 186155236#4"/>
    </vehicle>
    <vehicle id="11" depart="26.47">
        <route edges="-98897042#1 -98897042#0 -182263860#3 -182263860#2 -182263860#1 -182263860#0 186252900 830281111 830281110 1108574774#0 1108574774#1 1108574774#2 1108574774#3 1108574775#0 1108574775#1 688396689#0 688396689#1 688396689#2 688396689#4 -1110690430 -182567484#2"/>
    </vehicle>
    <vehicle id="12" depart="28.87">
        <route edges="99839748#1 1149388754#2 1149388754#3 99839799#0 99839799#1 99839799#2 99839799#3 99839799#4 186396281#0 186396281#1 186396281#2 99839664#3 99839664#4 99839664#6 99839664#8 99839664#9 99839664#10 99839664#11 99839664#12 -830281097#1 -830281097#0 -830281101 -99836114#4 -99836114#3 -98897051#3"/>
    </vehicle>
    <vehicle id="13" depart="31.28">
        <route edges="-182516773#1 182516754#1 -186185731#3 -186185731#2 -186185731#1 -186185731#0 -190064678#3 -190064678#2 -190064678#0 -182516763#6 -182516763#4 -182517353"/>
    </vehicle>
    <vehicle id="14" depart="33.69">
        <route edges="98889237#1 98889237#2 -182263860#2 -182263860#1 -182263860#0 186252900 830281111 830281110 1108574774#0 182518175#0 182518175#1 -182286386#13 -182518172#4 -182518172#3 -182518172#2 -182518172#1 182518172#1"/>
    </vehicle>
    <vehicle id="15" depart="36.09">
        <route edges="58600971#0 58600971#1 58600971#2 1182427275#0 1182427275#2 1182427275#4 1110690343#0 1110690343#2 1110690343#3 1110690343#4 186145511#0 186145511#1 186145511#2 186145511#3 186145511#4 186145511#5 186145511#6 186145511#7 58401204#0 58401204#1 58401204#2 58401204#3 58401204#4 58401204#5 58401204#6 58401204#7 58401204#8 186185733#6 186185733#7 186185733#9 -190062915#1 -190062915#0 -98897100#5 98897055#4 98897055#6 186378020#0 186378020#1 186378020#2"/>
    </vehicle>
    <vehicle id="16" depart="38.50">
        <route edges="182516712#1 -182516724#0 58401204#14 58401204#15 182516766#0 182516766#1 -182516774#0 31738930#5 -99839718#0 99839792#0"/>
    </vehicle>
    <vehicle id="17" depart="40.90">
        <route edges="-99839625#0 99839625#0 99839625#1 98897100#1 98897100#2 98897100#3 98897100#4 98897100#5 190062915#0 190062915#1 -186185733#9 -186185733#7 -186185733#6 58401204#9 58401204#10 58401204#11 58401204#12 58401204#13 186185739#0 182516741 182516752#1"/>
    </vehicle>
    <vehicle id="18" depart="43.31">
        <route edges="830281121 830281120 688396677#0 182564500#0"/>
    </vehicle>
    <vehicle id="19" depart="45.72">
        <route edges="98897033#0 -99839765 98897022#3 -830281108 1153978378 -28350954#2 -28350954#1 -28350954#0 170316861 1054766439 294669647#0 294669647#1 294669647#2 294669647#3 294669647#4 294669647#5 294669647#6 294669647#7 1073886178 -182408027#13 -182408027#12 -182408027#11 -182408027#10 -830281130#3 182517359#2"/>
    </vehicle>
    <vehicle id="20" depart="48.12">
        <route edges="186155236#6 -186155236#6 820242690 98897100#0 98897100#1 98897100#2 98897100#3 98897100#4 98897100#5 190062915#0 190062915#1 -186185733#9 -186185733#7 -186185733#6 -186185733#5 -186185733#4 -186185733#3 -186185733#2 -186185733#1 -186185733#0 182408027#7 182408027#8 182408027#9 182408027#10 182408027#11 -182408027#11"/>
    </vehicle>
    <vehicle id="21" depart="50.53">
        <route edges="-186160018#2 -182518164#1 -182518164#0 -186145511#0 -1110690343#4 -1110690343#3 -1110690343#2 -1110690343#1 -1182427275#5 -1182427275#2 -1182427275#0 98335034#0 98335034#1 98335034#2 688396681 -62124263#2"/>
    </vehicle>
    <vehicle id="22" depart="52.94">
        <route edges="-182516755#0 182516755#0 186185720#4 186185720#5 186185720#6 -186185733#7 -186185733#6 -186185733#5"/>
    </vehicle>
    <vehicle id="23" depart="55.34">
        <route edges="-182517355 -190064676#3 186185733#1 186185733#2 186185733#3 186185733#4 186185733#5 -58401204#8 -58401204#7 -58401204#6 -58401204#5 -58401204#4 -58401204#3 -58401204#2 -58401204#1 -58401204#0 -186145511#7 -186145511#6 -186145511#5 -186145511#4 -186145511#3 -186145511#2 -186145511#1 -186145511#0 -1110690343#4 -1110690343#3 -1110690343#2 -1110690343#1 -1182427275#5 -1182427275#2 -1182427275#0 -31738979#18 -31738979#17 -31738979#16 -31738979#14 -31738979#13"/>
    </vehicle>
    <vehicle id="24" depart="57.75">
        <route edges="182567476#1 182567494#0 182567494#2 58600971#1 58600971#2 1182427275#0 1182427275#2 1182427275#4 688396682#2 688396682#3 688396682#4 688396682#5 688396682#6 688396682#7 688396682#8 688396682#9 688396682#10 830281113 830281112 182263860#0 182263860#1 182263860#2 182263860#3 182263860#5 182263860#6 99836114#0 99836114#1 99836114#2 99836114#3 98897114#0 -98897120#1"/>
    </vehicle>
    <vehicle id="25" depart="60.15">
        <route edges="-98897116#3 -98897116#2 -98897116#1 -98897116#0 -182263860#1 -182263860#0 186252900 830281111 830281110 1054761589#0 1054761589#1 -186151974#1 -186151974#0"/>
    </vehicle>
    <vehicle id="26" depart="62.56">
        <route edges="-190062913#2 -190062913#1 99836114#1 99836114#2 99836114#3 99836114#4 830281098 830281097#0 830281097#1 -1149388756#1 -1149388756#0 -830281104 -28350954#2 -28350954#1 -99839631#11 -99839631#10 99839672#2 99839672#3"/>
    </vehicle>
    <vehicle id="27" depart="64.97">
        <route edges="182567495#1 -98335034#0 1182427275#0 1182427275#2 1182427275#4 1110690343#0 1110690343#2 1110690343#3 1110690343#4 186145511#0 186145511#1 186145511#2 186145511#3 186145511#4 186145511#5 -182518176#4 -182518176#3 182518176#3"/>
    </vehicle>
    <vehicle id="28" depart="67.37">
        <route edges="-182567497#1 182567497#1 31738921#5 182567517#0 182567517#1 688396682#7 688396682#8 688396682#9 688396682#10 98897108#0 98897108#1 98897108#3 1054766440 294669649#0 294669649#1 -190062914#0 98897055#0 98897055#1 98897055#2 98897055#3 98897055#4 98897055#6 186378020#0 186378020#1"/>
    </vehicle>
    <vehicle id="29" depart="69.78">
        <route edges="-182567485#4 182567485#4 830281123 294669643#2 294669643#3 294669643#4 294669643#5 294669643#6 294669643#7 294669643#8 294669643#9 294669643#10 294669643#11 1054766438 147167441 28350954#0 -99839631#11 -99839631#10"/>
    </vehicle>
    <vehicle id="30" depart="72.18">
        <route edges="99839813 1149388754#2 1149388754#3 99839799#0 99839799#1 99839799#2 99839799#3 99839799#4 186396281#0 186396281#1 186396281#2 186396281#3 186396281#4 820242690 98897100#0 98897100#1 98897100#2 98897100#3 98897100#4 98897100#5 190062915#0 190062915#1 -186185733#9 -186185733#7 -186185733#6 -58401204#8 -58401204#7 -58401204#6 -58401204#5 -58401204#4 -58401204#3 -58401204#2 -58401204#1 -58401204#0 -186145511#7 -186145511#6 -186145511#5 -186145511#4 -186145511#3 -186145511#2 -186145511#1 -186145511#0 -1110690343#4 -1110690343#3 -1110690343#2 -1110690343#1 -1182427275#5 182567493#0"/>
    </vehicle>
    <vehicle id="31" depart="74.59">
        <route edges="182516748#2 182516748#3 -58401204#13 -58401204#12 -58401204#11 -58401204#10 -58401204#9 -58401204#8 -58401204#7 -58401204#6 -58401204#5 -58401204#4 -58401204#3 -58401204#2 -58401204#1 -58401204#0 -186145511#7 186145511#7"/>
    </vehicle>
    <vehicle id="32" depart="77.00">
        <route edges="98335029#9 -98335029#9 -182567500#2 -182567500#1 -182567500#0 1110690343#3 1110690343#4 186145511#0 186145511#1 186145511#2 186145511#3 186145511#4 186145511#5 186145511#6 186145511#7 58401204#0 58401204#1 58401204#2 58401204#3 58401204#4 58401204#5 58401204#6 58401204#7 58401204#8 186185733#6 186185733#7 186185733#9 294669649#3 294669649#4 294669649#5 294669649#6"/>
    </vehicle>
    <vehicle id="33" depart="79.40">
        <route edges="-186185720#1 186185720#1 186185720#3 -182516755#0 31738930#14 294669644 1054766438 147167441 28350954#0 28350954#1 28350954#2 830281103 1149388756#0 1149388756#1 -830281097#1 -830281097#0 -830281101 -99836114#4 -99836114#3 -99836114#2 -99836114#1 -99836114#0 -182263860#6 -182263860#5 -182263860#3"/>
    </vehicle>
    <vehicle id="34" depart="81.81">
        <route edges="-98335029#4 -98335029#3 182286386#0 182286386#1 182286386#2 182286386#3 182286386#4 182286386#5 186145511#3 186145511#4 186145511#5 186145511#6 186145511#7 58401204#0 -186185737 -190064679#1 -190064679#0"/>
    </vehicle>
    <vehicle id="35" depart="84.22">
        <route edges="-186151961 182256519#4 688396682#8 688396682#9 688396682#10 830281113 830281112 182263860#0 182263860#1 182263860#2 182263860#3 182263860#5 182263860#6 99836114#0 99836114#1 99836114#2 99836114#3 99836114#4 830281098 830281097#0 830281097#1 -1149388756#1 -1149388756#0 -830281104 -28350954#2 98897097#0 98897097#1 98897097#2 98897097#3 98897097#4 98897097#5 98897097#6 99839711#0"/>
    </vehicle>
    <vehicle id="36" depart="86.62">
        <route edges="98897058 -98897058 98897069#1 98897069#2 -98889237#0"/>
    </vehicle>
    <vehicle id="37" depart="89.03">
        <route edges="182567506#0 -182567488#3 182518164#3 182518164#4 -186185745#1 -186185745#0 186145511#6 186145511#7 294669643#7 294669643#8 294669643#9 294669643#10 294669643#11 1054766438 147167441 28350954#0 28350954#1 28350954#2 830281103 1149388756#0 1149388756#1 -99839664#12 -99839664#11"/>
    </vehicle>
    <vehicle id="38" depart="91.43">
        <route edges="99839628#2 -98897097#3 -98897097#2 -98897097#1 -98897097#0 28350954#2 830281103 1149388756#0 1149388756#1 -830281097#1 -830281097#0 -830281101 -99836114#4 -99836114#3 -99836114#2 -99836114#1 -99836114#0 -182263860#6 -182263860#5 -182263860#3 -182263860#2 -182263860#1 -182263860#0 186252900 830281111 830281110 1054761589#0 1054761589#1 1054761589#2"/>
    </vehicle>
    <vehicle id="39" depart="93.84">
        <route edges="-190062912 170316859#4 99839628#5 -186378010#16 -186378010#15 -186378010#14 -186378010#13 -186378010#12 -186378010#11 -186378010#10 -186378010#9 -186378017"/>
    </vehicle>
    <vehicle id="40" depart="96.25">
        <route edges="182516754#1 182516754#2 182516757#3 182516757#4 190064676#0 190064676#1 -190064676#1"/>
    </vehicle>
    <vehicle id="41" depart="98.65">
        <route edges="182517362 830281130#1 830281130#2 830281130#3 -182408027#9 -182408027#8 -182408027#7 186185733#0 186185733#1 186185733#2 186185733#3 186185733#4 186185733#5 -58401204#8 -58401204#7 -58401204#6 -58401204#5 -58401204#4 -58401204#3 -58401204#2 -58401204#1 -58401204#0 -186145511#7 -186145511#6 -186145511#5 -186145511#4 -186145511#3 182286386#6 182286386#7 182286386#8 182286386#9 182286386#11 182286386#13 1111803704 294669642#3 830281113 830281112 182263860#0 182263860#1 98897116#0 98897116#1 98897116#2 98897116#3"/>
    </vehicle>
    <vehicle id="42" depart="101.06">
        <route edges="-99839658#2 99839658#2 99839658#4 99839658#5 1122614267 -186155236#7 -186155236#6"/>
    </vehicle>
    <vehicle id="43" depart="103.46">
        <route edges="99847553 99839664#11 99839664#12 -830281097#1 -830281097#0 -830281101 -99836114#4 -99836114#3 -99836114#2 -99836114#1 -99836114#0 182263860#8"/>
    </vehicle>
    <vehicle id="44" depart="105.87">
        <route edges="-182516768 -182516739#3 -182516739#1 -182516739#0 182408027#2 -182408027#2"/>
    </vehicle>
    <vehicle id="45" depart="108.28">
        <route edges="-182518151 182517363#0 182517352#1 182517352#2 830281124#0 830281124#1 830281124#2 182408027#13 182516732#0 182516732#1 190064679#0 190064679#1 186185737 -58401204#0 -186145511#7 -186145511#6 -186145511#5 -186145511#4 -186145511#3 -186145511#2 -186145511#1 1110047457#0 -182567474#2 182567474#2"/>
    </vehicle>
    <vehicle id="46" depart="110.68">
        <route edges="31738930#14 294669644 1054766438 1054766440 294669649#0 294669649#1 -190062914#0 98897055#0 98897055#1 98897055#2 98897055#3 98897055#4 98897055#6 98897055#7 98897055#8 98897055#10 98897055#11 98897055#13 98897055#15 98897055#16 99847614#0 186378006 -99839764#4"/>
    </vehicle>
    <vehicle id="47" depart="113.09">
        <route edges="-182516732#0 -182408027#13 -182408027#12 -182408027#11 -182408027#10 -182408027#9 -182408027#8 -182408027#7 186185733#0 186185733#1 186185733#2 186185733#3 186185733#4 186185733#5 186185733#6 186185733#7 186185733#9 -190062915#1 -190062915#0 -98897100#5 -98897100#4 -98897100#3 99839631#5 -99839631#5"/>
    </vehicle>
    <vehicle id="48" depart="115.50">
        <route edges="99839830#0 -99836129#5 -99836129#3 -99836129#2 -99836129#1 -99836129#0 99839799#0 99839799#1 99839799#2 99839799#3 99839799#4 186396281#0 186396281#1 186396281#2 186396281#3 186396281#4 820242690 98897100#0 98897100#1 98897100#2 98897100#3 98897100#4 98897100#5 190062915#0 190062915#1 -186185733#9 -186185733#7 -186185733#6 -186185733#5 182516715#0"/>
    </vehicle>
    <vehicle id="49" depart="117.90">
        <route edges="99839781#3 -186155236#1 -186155236#0 1149388756#0 1149388756#1 -830281097#1 -830281097#0 -830281101 -99836114#4 -99836114#3 -99836114#2 -99836114#1 -99836114#0 -98897057#7 98897019#0 98897037"/>
    </vehicle>
    <vehicle id="50" depart="120.31">
        <route edges="-1110047457#2 -1110047457#1 -1110047457#0 186145511#1 186145511#2 186145511#3 186145511#4 186145511#5 186145511#6 186145511#7 58401204#0 58401204#1 58401204#2 58401204#3 58401204#4 58401204#5 58401204#6 58401204#7 58401204#8 186185733#6 186185733#7 186185733#9 -190062915#1 -190062915#0 -186378010#12 -186378010#11 -186378010#10 -186378010#9 -186378010#8 -186378010#6 -186378010#5 -186378010#3 -186378010#2 -186378010#1 186378010#1"/>
    </vehicle>
    <vehicle id="51" depart="122.71">
        <route edges="182903317#1 210883022 1153978378 -28350954#2 -28350954#1 -28350954#0 170316861 1054766439 294669647#0 182516726 186185720#3 182516755#1 182516727#1"/>
    </vehicle>
    <vehicle id="52" depart="125.12">
        <route edges="-190062913#2 -98897042#0 -182263860#3 -182263860#2 -182263860#1 -182263860#0 186252900 830281111 830281110 1108574774#0 1108574774#1 1108574774#2 1108574774#3 1108574775#0 1108574775#1 688396689#0 688396689#1 688396689#2 -1182427275#5 -1182427275#2 -1182427275#0 -58600971#2 -182567525#1 -182567525#0 182567476#1 182567494#0"/>
    </vehicle>
    <vehicle id="53" depart="127.53">
        <route edges="-182518153 182518153 182518174 -182286386#9 -182286386#8 -182286386#7 -182286386#6 186145511#3 186145511#4 186145511#5 186145511#6 186145511#7 58401204#0 58401204#1 58401204#2 58401204#3 58401204#4 58401204#5 58401204#6 58401204#7 58401204#8 186185733#6 186185733#7 186185733#9 -190062915#1 -190062915#0 -98897100#5 98897055#4 98897055#6 98897055#7 98897055#8 98897055#10 98897055#11 -99839792#2 -99839792#1"/>
    </vehicle>
    <vehicle id="54" depart="129.93">
        <route edges="-99839808#3 99839808#3 99839792#1 99839792#2 -98897055#11 -98897055#10 -98897055#8 -98897055#7 -98897055#6 -98897055#4 -98897055#3 -98897055#2 -98897055#1 -98897055#0 190062914#0 31738930#13 31738930#14 294669644 294669642#0 294669642#1 294669642#3 1103834421 99333463#0 99839743"/>
    </vehicle>
    <vehicle id="55" depart="132.34">
        <route edges="98897057#5 99836114#0 99836114#1 99836114#2 99836114#3 99836114#4 830281098 830281097#0 830281097#1 -1149388756#1 -1149388756#0 -830281104 -28350954#2 -28350954#1 -28350954#0 170316861 294669649#0 294669649#1 294669649#2 -186185733#9 -186185733#7 -186185733#6 -186185733#5 -186185733#4 -186185733#3 -186185733#2 -186185733#1 -190064676#2"/>
    </vehicle>
    <vehicle id="56" depart="134.74">
        <route edges="1149388756#1 -830281097#1 -830281097#0 -830281101 -99836114#4 -99836114#3 -99836114#2 -99836114#1 -99836114#0 -182263860#6 -182263860#5 -182263860#3 -182263860#2 -182263860#1 -182263860#0 186252900 830281111 830281110 1108574774#0 1108574774#1 1108574774#2 1108574774#3 1108574775#0 1108574775#1 688396689#0 688396689#1 688396689#2 -1182427275#5 -1182427275#2 -1182427275#0 -31738979#18 -31738979#17 -31738979#16 -182567519"/>
    </vehicle>
    <vehicle id="57" depart="137.15">
        <route edges="99839626 -98897055#13 -98897055#11 -98897055#10 -98897055#8 -98897055#7 -98897055#6 -98897055#4 -98897055#3 -98897055#2 -98897055#1 -98897055#0 190062914#0 31738930#13 31738930#14 294669644 1054766438 147167441 28350954#0 28350954#1 28350954#2 830281103 1149388756#0 1149388756#1 -830281097#1 -830281097#0 -830281101 -99836114#4 -99836114#3 -99836114#2 -99836114#1 -99836114#0 -98897057#7 -98897057#4 -98897057#2 -98897057#1 98897057#0"/>
    </vehicle>
    <vehicle id="58" depart="139.56">
        <route edges="-688396666 182518168#7 182518159#1 182518159#2 182567474#2 182567474#3 182567474#4 -1110690343#3 -1110690343#2 -1110690343#1 688396682#2 688396682#3 -98335030#4 -98335030#3 -98335030#2 182567491#0 182567491#1"/>
    </vehicle>
    <vehicle id="59" depart="141.96">
        <route edges="182518171#0 182518171#1 -186145511#6 -186145511#5 -186145511#4 -186145511#3 -186145511#2 -186145511#1 -186145511#0 -1110690343#4 -1110690343#3 -1110690343#2 -1110690343#1 -1182427275#5 -1182427275#2 -1182427275#0 -58600971#2 -182567525#1 -182567525#0 -182567476#0"/>
    </vehicle>
    <vehicle id="60" depart="144.37">
        <route edges="294669643#10 294669643#11 1054766438 1054766440 1054766439 294669647#0 294669647#1 294669647#2 294669647#3 58401204#0 58401204#1 58401204#2 58401204#3 58401204#4 58401204#5 58401204#6 58401204#7 58401204#8 58401204#9 58401204#10 58401204#11 58401204#12 182516735#0 182516735#1"/>
    </vehicle>
    <vehicle id="61" depart="146.78">
        <route edges="294669649#6 98897011 186378010#2 186378010#3 186378010#5 186378010#6 186378010#8 186378010#9 186378010#10 186378010#11 186378010#12 190062915#0 190062915#1 -186185733#9 -186185733#7 -186185733#6 -58401204#8 -58401204#7 -58401204#6 -58401204#5 -182295571#6 -182295571#5 182516715#4"/>
    </vehicle>
    <vehicle id="62" depart="149.18">
        <route edges="-1051567513 -99839779 99839664#0 99839664#1 99839664#2 99839664#3 99839664#4 99839664#6 99839664#8 99839664#9 99839664#10 99839664#11 99839664#12 -830281097#1 -830281097#0 -830281101 -99836114#4 -99836114#3 -99836114#2 -99836114#1 -99836114#0 -98897057#7 -98897057#4 -98897057#2 -98897057#1 -98897068#0 186153347#0 186153347#1 -98897018 -98897047#2 -98897017"/>
    </vehicle>
    <vehicle id="63" depart="151.59">
        <route edges="-1149388754#0 99839680 99839794#1 -186155236#9 -186155236#8 -1149388755#0 -99839658#5 -99839658#4 -99839658#2 99839658#2"/>
    </vehicle>
    <vehicle id="64" depart="153.99">
        <route edges="98897068#3 98897068#4 98889247#3 98889247#4 98889247#5 830281112 186252900 830281111 830281110 1108574774#0 182518175#0 182518175#1 -182286386#13 -182286386#11 -182286386#9 -182286386#8 -182286386#7 -182286386#6 186145511#3 186145511#4 186145511#5 186145511#6 186145511#7 294669647#4 294669647#5 294669647#6 294669647#7 1073886178 -182408027#13 -182408027#12 -182408027#11 -182408027#10 -830281130#3 830281130#3"/>
    </vehicle>
    <vehicle id="65" depart="156.40">
        <route edges="-830281126#1 830281126#1 830281126#2 186185733#0 186185733#1 186185733#2 186185733#3 -182516724#2"/>
    </vehicle>
    <vehicle id="66" depart="158.81">
        <route edges="98897068#1 -98897058 -98897069#0 98897057#3 98897057#5 99836114#0 99836114#1 99836114#2 99836114#3 99836114#4 830281098 830281097#0 830281097#1 -1149388756#1 -1149388756#0 -830281104 -28350954#2 -28350954#1 -28350954#0 170316861 294669649#0 294669649#1 -190062914#0 98897055#0 -186378010#16 -186378010#15 -186378010#14 -186378010#13 -186378010#12 -186378010#11 -186378010#10 -186378010#9 -186378010#8 -186378010#6 -186378010#5 99839718#0"/>
    </vehicle>
    <vehicle id="67" depart="161.21">
        <route edges="-182516763#2 -182516763#1 190064679#1 186185737 -58401204#0 -186145511#7 -186145511#6 -186145511#5 -186145511#4 -186145511#3 182286386#6 182286386#7 182286386#8 182286386#9 182286386#11 182286386#13 1111803704"/>
    </vehicle>
    <vehicle id="68" depart="163.62">
        <route edges="-182516743#0 -190064678#0 186185733#3 186185733#4 186185733#5 -58401204#8 -58401204#7 -58401204#6 -58401204#5 -58401204#4 -58401204#3 -58401204#2 -58401204#1 -58401204#0 -186145511#7 -182518171#1 -182518171#0 182518158#1 182518165#1 182518165#2 -98335029#0 294669643#3"/>
    </vehicle>
    <vehicle id="69" depart="166.02">
        <route edges="294669643#8 294669643#9 294669643#10 182518172#0 182518172#1 182518172#2 182518172#3 -182518172#3"/>
    </vehicle>
    <vehicle id="70" depart="168.43">
        <route edges="1069204468#6 -1069204468#6 -1069204468#5 98897100#0 98897100#1 98897100#2 98897100#3 98897100#4 98897100#5 190062915#0 190062915#1 -186185733#9 -186185733#7 -186185733#6 58401204#9 58401204#10 58401204#11 58401204#12 58401204#13 58401204#14 182516749#0 182516749#1"/>
    </vehicle>
    <vehicle id="71" depart="170.84">
        <route edges="-190062912 -170316859#3 -170316859#2 -170316859#1 -170316859#0 28350954#0 28350954#1 28350954#2 830281103 1149388756#0 1149388756#1 -830281097#1 -830281097#0 -830281101 -99836114#4 -99836114#3 -99836114#2 -99836114#1 -99836114#0 -98897057#7 98897057#5"/>
    </vehicle>
    <vehicle id="72" depart="173.24">
        <route edges="-99839741#1 -99839827#1 -99839827#0 -830281097#0 -830281101 -99836114#4 -99836114#3 -99836114#2 -99836114#1 -99836114#0 -182263860#6 -182263860#5 -182263860#3 -182263860#2 -182263860#1 -182263860#0 186252900 830281111 830281110 1108574774#0 1108574774#1 1108574774#2 1108574774#3 1108574775#0 1108574775#1 688396689#0 688396689#1 688396689#2 -1182427275#5 -1182427275#2 -1182427275#0 -31738979#18 -31738979#17 -31738979#16 -31738979#14 -182567502 -186151976#5"/>
    </vehicle>
    <vehicle id="73" depart="175.65">
        <route edges="182516715#6 -182516715#6 186185737 58401204#1 58401204#2 58401204#3 58401204#4 58401204#5 58401204#6 58401204#7 58401204#8 186185733#6 186185733#7 186185733#9 -190062915#1 -190062915#0 -98897100#5 98897055#4 98897055#6 186378020#0 186378020#1 186378020#2"/>
    </vehicle>
    <vehicle id="74" depart="178.06">
        <route edges="-182903317#0 182903317#0 182903317#1 210883022 186153966 -98897022#3 -98897022#2 -98897022#1 -98897022#0 830281111 830281110 1108574774#0 1108574774#1 1108574774#2 1108574774#3 1108574775#0 1108574775#1 688396689#0 688396689#1 688396689#2 688396682#2 688396682#3 -98335030#4 -98335030#3 -98335030#2 -98335030#1 -98335030#0"/>
    </vehicle>
    <vehicle id="75" depart="180.46">
        <route edges="99839830#0 -99836129#5 -99836129#3 -99836129#2 -99836129#1 -99836129#0 99839799#0 99839799#1 99839799#2 99839799#3 99839799#4 186396281#0 186396281#1 186396281#2 186396281#3 186396281#4 820242690 98897100#0 98897100#1 98897100#2 98897100#3 98897100#4 98897100#5 190062915#0 190062915#1 -186185733#9 -186185733#7 -186185733#6 -58401204#8 -58401204#7 -58401204#6 -58401204#5 -58401204#4 -58401204#3 -58401204#2 -58401204#1 -58401204#0 -186145511#7 -186145511#6 -186145511#5 -186145511#4 -186145511#3 -182286386#5 -182286386#4 182567506#0"/>
    </vehicle>
    <vehicle id="76" depart="182.87">
        <route edges="-99839781#2 -99839781#1 99839757 99839635#4 99839664#12 -830281097#1 -830281097#0 -830281101 -99836114#4 -99836114#3 -99836114#2 -99836114#1 -99836114#0 -182263860#6 -182263860#5 -182263860#3 -182263860#2 -182263860#1 -182263860#0 186252900 830281111 830281110 1108574774#0 1108574774#1 1108574774#2 1108574774#3 1108574775#0 1108574775#1 -182295567#3 -182295567#2 182295567#2"/>
    </vehicle>
    <vehicle id="77" depart="185.27">
        <route edges="-182518164#5 -186185745#1 -186185745#0 186145511#6 186145511#7 58401204#0 58401204#1 58401204#2 58401204#3 -182516755#2 -182516755#1 -186185720#3"/>
    </vehicle>
    <vehicle id="78" depart="187.68">
        <route edges="-98897033#3 98897033#3 99839731#1 -98897022#0 830281111 830281110 1108574774#0 1108574774#1 1108574774#2 1108574774#3 1108574882#0 182518160#0"/>
    </vehicle>
    <vehicle id="79" depart="190.09">
        <route edges="-186185720#6 190064675#3 -190062914#0 98897055#0 98897055#1 98897055#2 98897055#3 98897055#4 98897055#6 98897055#7 98897055#8 98897055#10 99839658#2 99839658#4 99839658#5 1122614267 -186155236#7"/>
    </vehicle>
    <vehicle id="80" depart="192.49">
        <route edges="-182516745 -182516766#0 -58401204#15 -58401204#14 -58401204#13 -58401204#12 -58401204#11 -58401204#10 -58401204#9 -58401204#8 -58401204#7 -58401204#6 -58401204#5 -58401204#4 -58401204#3 -58401204#2 -58401204#1 -58401204#0 -186145511#7 -186145511#6 -186145511#5 -186145511#4 -186145511#3 -186145511#2 -186145511#1 -186145511#0 -1110690343#4 -1110690343#3 -1110690343#2 -1110690343#1 688396682#2 688396682#3 688396682#4 688396682#5 182567526 182567517#0 -186151964 -182567477#1 182567477#1"/>
    </vehicle>
    <vehicle id="81" depart="194.90">
        <route edges="-186185720#1 186185720#1 186185720#3 186185720#4 186185720#5 190064675#3 -190062914#0 98897055#0 98897055#1 98897055#2 98897055#3 -98897100#4 -98897100#3 -98897100#2 -98897100#1 -98897100#0 -820242690 -186396281#4 -186396281#3 -186396281#2 -186396281#1 -186396281#0 -99839799#5 -99839799#3 -99839799#2 -99839799#1 -99839799#0 99836129#0"/>
    </vehicle>
    <vehicle id="82" depart="197.30">