<?xml version="1.0" encoding="UTF-8"?>

<!-- generated on 2024-08-01 01:00:12.554316 by randomTrips.py UNKNOWN
<configuration>
    <net-file value="config/osm.net.xml.gz"/>
    <route-file value="config/osm.passenger.trips.xml"/>
    <length value="True"/>
    <end value="10000.0"/>
    <insertion-density value="3.0"/>
</configuration>
-->

<!-- generated on 2024-08-01 01:00:12 by Eclipse SUMO duarouter Version 1.20.0
<configuration xmlns:xsi="http://www.w3.org/2001/XMLSchema-instance" xsi:noNamespaceSchemaLocation="http://sumo.dlr.de/xsd/duarouterConfiguration.xsd">

    <input>
        <net-file value="config/osm.net.xml.gz"/>
        <route-files value="trips.trips.xml"/>
    </input>

    <output>
        <output-file value="config/osm.passenger.trips.xml"/>
        <alternatives-output value="NUL"/>
    </output>

    <time>
        <begin value="0"/>
        <end value="10000.0"/>
    </time>

    <report>
        <no-warnings value="true"/>
        <ignore-errors value="true"/>
        <no-step-log value="true"/>
    </report>

</configuration>
-->

<routes xmlns:xsi="http://www.w3.org/2001/XMLSchema-instance" xsi:noNamespaceSchemaLocation="http://sumo.dlr.de/xsd/routes_file.xsd">
    <vehicle id="0" depart="0.00">
        <route edges="3908331 -3908331 -3908329 -3908324 -3908327#1 -231668414 -3987824 -2956313#2 -2956313#0 -202554454#2 -535767419#1 1296756535 4073114#0 4073114#1 4073114#2 4242657#0 236680742 -40893861#2 1035968701#0 -401624433#1 -30839836 -292128487#1 23112667#0 24797343 24797348#0 171050472 23112733 23112743 363361638#1 157690775#0 157690775#1 448306609 4270675#2 448306612 -487215983 -239083451 -239083453 -4892132 -1205351532 -409802672 -400780606 217180781#0 221891973 -555489258 -154214807#1"/>
    </vehicle>
    <vehicle id="1" depart="4.47">
        <route edges="-4604626#1 -4604619#3 1185360315 1185360314 -23681873 -23681872 -820117159 -171768913 -243106572 -265399405#1 -391280439 -391280439.565 -4243102"/>
    </vehicle>
    <vehicle id="2" depart="8.95">
        <route edges="4526642 -265399405#1 -391280439 -391280439.565 -4243102 4232547#0"/>
    </vehicle>
    <vehicle id="3" depart="13.42">
        <route edges="54489190#0 54488662#0 4936976#0 54497794 975294056 1222725745 236680742 -40893861#2 1035968701#0 -401624433#1 -30839836 -292128487#1 23112667#0 24797343 24797348#0 171050472 23112733 23112743 363361638#1 157690775#0 157690775#1 448306609 4270675#2 448306612 -487215983 -239083451"/>
    </vehicle>
    <vehicle id="4" depart="17.90">
        <route edges="-E1 -E3 391280439 265399408 4243103#0 416095358#2 228891622 4243104 43320003 478332037 -61883421 -9234350#1 -224830909#1 4261979#0 4265010 1222942634#0 292128487#0 30839836 4265013 -1035968701#2 702560790 23177745 4626809 242737762#1 1296756534 4066699#0 -158080155#1"/>
    </vehicle>
    <vehicle id="5" depart="22.37">
        <route edges="-4243102 4232547#0 61722765 391280439 265399408 4243103#0 416095358#2 228891622 4243104 43320003 478332037 -61883421 -9234350#1 -224830909#1 4261979#0 4265010 1222942634#0 292128487#0 30839836 4265013 -1035968701#2 702560790 23177745 4626809 242737762#1 1296756534 4066699#0 202554454#0"/>
    </vehicle>
    <vehicle id="6" depart="26.85">
        <route edges="-157690775#1 157690775#1 448306609 4270675#2 518745246 518745245 23165176 487215981 -4018954 4018955 1158776118 481282492 -4018953#0"/>
    </vehicle>
    <vehicle id="7" depart="31.32">
        <route edges="400780610 409802674#0 1205351531 4018957 239083442 1158776118 1158776117 4640983#0 478332036#0 852470598 5024413 4915132 5055514 4915129 23103090 419698160 23103089#0 23103089#1 4390337 4390336#0 -4835699#1 4243203 -132911043 -467564194 -467564195 -467564196 23210269#0"/>
    </vehicle>
    <vehicle id="8" depart="35.79">
        <route edges="-4243104 4243104 43320003 478332037 -61883421 -9234350#1 -224830909#1 4261979#0 4265010 1222942634#0 292128487#0"/>
    </vehicle>
    <vehicle id="9" depart="40.27">
        <route edges="478332036#0 -5048694 -5732851 207289374#0 -29400477 -5654955 -23126387#0 -5196657 -4629637 -1112807035#1 292128487#0 30839836 4265013 4936477#0 368004905#0 478819319#0 481277903 187007954#0 4210631#0 368003202 208356734 970453667#0 1104605979#0 1104605979#1 -1039209423"/>
    </vehicle>
    <vehicle id="10" depart="44.74">
        <route edges="4720987#0.470 4926664 59762091#0 -4797481 -29259956 -112786021 23879656 467564194 132911043 -467563940 -467563938 -23186618#1 -467563936 -467563935 29172847#0 -434919033 33463745 33463744 4871772 -1267512463#1 6110692 42178344#0 42178697#0 -704223634 704223633#0 704223633#1 1258526697#1 704223653#0 -729966361 704223658#0 -704223660#1 -4018945#1 4242657#0 -1222725745 -4242656#1 -4242654 4266043"/>
    </vehicle>
    <vehicle id="11" depart="49.22">
        <route edges="-4835699#1 4243203 -467563940 -467563938 -23186618#1 -467563936 -467563935 29172847#0 -434919033 33463745 33463744 4871772 -1267512463#1 6110692 42178344#0 42178697#0 -704223634 704223633#0 704223633#1 1258526697#1 704223653#0 -729966361 704223658#0 -704223660#1 -4018945#1 1210308506 -403951935 -5155576#1 -23236020 -358521171#2"/>
    </vehicle>
    <vehicle id="12" depart="53.69">
        <route edges="E1 -E3 -E5 E8 -4526637 4526638 1185360313 1185360311 4936021#0 -4936021#0"/>
    </vehicle>
    <vehicle id="13" depart="58.17">
        <route edges="-265399405#1"/>
    </vehicle>
    <vehicle id="14" depart="62.64">
        <route edges="48398867 -908317403#1 -4287783 -368177834 -5197317 5036903 330066290 5049174 -478729208 -5036493 -478729209 -478728617#0 -361256970 -477949267#1 4206587 -4417442#1 4432723 3017271 33748379#0 3017281#0"/>
    </vehicle>
    <vehicle id="15" depart="67.11">
        <route edges="477949267#2 666743346 478729209 5036493 478729208 -4211541#0 -478664899#2 5197314#0 5036921#1 -3850464 3849560#0 -5001383#3 -246054842#1 -4252297#1 -478702800#1 -617713589 -617713588 -4252298#1 -1082761836#1 -370021202 -370021204#1 -370021205 -370021203 -23126672 -250578973#1 -4252299#1 -4892130 4892123#0 4892123#2 619756926 30839832 619756923 30839833 4252302#0 43523632 157687428#0 4526635#0 4526634 1158771801 1158771800 1158771799 4396435 1158771805 4487543 4526625#0"/>
    </vehicle>
    <vehicle id="16" depart="71.59">
        <route edges="23103089#1 4390337 4390336#0 -4390336#1 -4390337 -23103089#1 -23103089#0 -419698160 -23103090 -4915129 -5055515 -45212491 -314570567#2 -72457696 4641047#0 E17"/>
    </vehicle>
    <vehicle id="17" depart="76.06">
        <route edges="-61425755 -394854858#1 -4702121#1 4627379 305543583#0 616908332#0 -793036879#1 -E2 -E3 -E5 E8 590583580 4526635#0 4526634 1158771801 4487517 4487516#0 4487519 233580774"/>
    </vehicle>
    <vehicle id="18" depart="80.54">
        <route edges="4803057#2 157689843 -4803057#1 -793036879#1 -358612595 358612598#0 358612599"/>
    </vehicle>
    <vehicle id="19" depart="85.01">
        <route edges="4926664 59762091#0 -4797481 -29259956 -112786021 23879656 467564194 132911043 -467563940 -467563938 -23186618#1 -467563936 -467563935 29172847#0 -434919033 33463745 33463744 4871772 -1267512463#1 6110692 42178344#0 42178697#0 -704223634 704223633#0 704223633#1 1258526697#1 219152741#0 28497046#0 66569406 187007954#0 4210631#0 368003202 23268804 -23268778 -5197318 -4604626#1 -4604619#3 1185360315 1185360314 -23681873 -23681872 -820117159 -171768913 478702807 238986996#0 1185360313 1185360311 1185360312 4526637 590583580 4526635#0 4526634 1158771801 1158771800 1158771799 4396435 1158771805 4487543 4526625#0 25623091#0"/>
    </vehicle>
    <vehicle id="20" depart="89.49">
        <route edges="4345657 -23614654#5 1228880049 -4793798 -112786021 23879656 467564194 132911043 -467563940 -467563938 -23186618#1 -467563936 -467563935 29172847#0 -434919033 33463745 33463744 4871772 -1267512463#1 6110692 42178344#0 42178697#0 -704223634 704223633#0 704223633#1 1258526697#1 219152741#0 28497046#0 66569406 -481277903 -478819319#1 -368004905#1 368004906#0 22466158 1292889948 241941714#0 494823373#0 224830909#0 9234350#0 -9234350#1 -224830909#1"/>
    </vehicle>
    <vehicle id="21" depart="93.96">
        <route edges="-4270676 217180783 154214826 29056910#1 400509604#0 1191743041 1012486050 1158776113 4627399 1158776120 400509596 4627398#0 4627398#3 4627398#5 -478387586 -4641047#1"/>
    </vehicle>
    <vehicle id="22" depart="98.43">
        <route edges="-239083451 -239083453 4627392 70845695 -29056910#0 -4270676"/>
    </vehicle>
    <vehicle id="23" depart="102.91">
        <route edges="-270728095 4232547#0 61722765 391280439 265399408 1104604370 -4640978 -4629640"/>
    </vehicle>
    <vehicle id="24" depart="107.38">
        <route edges="370021202 1082761836#0 4252298#0 617713588 617713589 478702800#0 4252297#0 246054842#0 129834120#0 -3849560#1 4210569 807148180 -61333932#3"/>
    </vehicle>
    <vehicle id="25" depart="111.86">
        <route edges="-5229446 1214797646 1214797648 5229446 154214826 -276269812 -276269813 132855246 487215984 487215985 448306611 518745245 518745244 4270675#0 448306610 -157690775#1 -157690775#0 -363361638#1 -363361638#0 -23112733 -171050472 -24797348#1 -24797343 -1112807035#1 292128487#0 30839836 4265013 -1035968701#2 702560790 23177745 -4018945#1 1210308506 54489190#0 54489542 403951938#0 618008355 964095500 60712787 -4073134#1 E11 42350816 41452432 -41452432"/>
    </vehicle>
    <vehicle id="26" depart="116.33">
        <route edges="-4576242 799316124 1167335768 799316125 -1086227026 4405485 619756923 30839833 4252302#0 4252302#1 4252302#2 4252301#0 4252301#1 4892130 4252299#0 250578973#0 23126671 4516433 370021205 370021204#0 370021202 840089452#0 840089453 1185360314 4526643 4604619#0 4604626#0 5001411 622459373 23186963#0 23186963#1 368003201 -187007954#1 -227758448 967346763#0 972211314 66569426#0 154795862#0 704223651#0 704223653#0 -729966361 704223658#0 -704223660#1 4626809 242737762#1 1296756534 4066699#0 202554454#0 2956313#0 2956313#1 171768925 2954058 880298117#1"/>
    </vehicle>
    <vehicle id="27" depart="120.81">
        <route edges="4000972#0 4307927 -4307927 -4000972#1 -33748379#1 -3017271 231456338 1239213542 4417442#0 -4206587 477949267#0 477949267#2 666743346 478729209 5036493 478729208 -5049174 -478729207 -24348178 5036903 330066290"/>
    </vehicle>
    <vehicle id="28" depart="125.28">
        <route edges="-3850464 3849560#0 -5001383#3 -246054842#1 -4252297#1 -478702800#1 -617713589 -617713588 -4252298#1 -1082761836#1 -370021202 -370021204#1 -370021205 -370021203 4516434#0"/>
    </vehicle>
    <vehicle id="29" depart="129.75">
        <route edges="-363361638#0 -23112733 -171050472 -24797348#1 -24797343 4871766#0 5196657 23126387#0 5654955 29400477 29400458 5732851 5048694 4641047#0 4641047#1 478387586 4627398#6 -765465025"/>
    </vehicle>
    <vehicle id="30" depart="134.23">
        <route edges="E5 391280439"/>
    </vehicle>
    <vehicle id="31" depart="138.70">
        <route edges="233580774 4252302#0 4252302#1 4252302#2 4252301#0 -4936021#0 1185360312 4526638 -238986996#2 -478702807 -243106572 -478693366 -205286267 4243103#0"/>
    </vehicle>
    <vehicle id="32" depart="143.18">
        <route edges="48197370 -48197370 -162145519 -23126672 -250578973#1 -5777004 1185360311 1185360312 4526637 -E8 -E6 E7 4629738#0"/>
    </vehicle>
    <vehicle id="33" depart="147.65">
        <route edges="-4270676 4878396 226951665#0 226951665#2 221891973 -555489258 -154214807#1 -864157203 -4270674#1 -793036879#1 -E2 -E3 -E5 E8 -4526637 4526638 1185360313 5777004 250578973#0 23126671 4516434#0 -162145519"/>
    </vehicle>
    <vehicle id="34" depart="152.13">
        <route edges="-478702800#1 -617713589 -617713588 -4252298#1 4526644#0 840089453 1185360314 4526643 4604619#0 4604626#0 -4604626#1"/>
    </vehicle>
    <vehicle id="35" depart="156.60">
        <route edges="-4211543 -4211545 -4211547 -396922880 -396922879 4246872#0 54487560#0 -403951935 -5155576#1 -23236020 -358521171#2 927294309#0"/>
    </vehicle>
    <vehicle id="36" depart="161.07">
        <route edges="5014378#0 132911042#0 862085872#2 400509602 1158776113 4627399 1158776120 1012486049 1158776119 400509598 -674349403#1 -4018953#0 1158776117 1158776116 481282494#0 56995095 207289374#0 -29400477 -5654955 -23126387#0 -5196657 -4629637 -1112807035#1 292128487#0 30839836 4265013 -1035968701#2 702560790 23177745 4626809 242737762#1 1296756534 4066699#0 202554454#0 2956313#0 2956313#1 886166923 416314343 3908327#1 4791807 -4791807"/>
    </vehicle>
    <vehicle id="37" depart="165.55">
        <route edges="4018953#1 400509599 1191743042 400509605#0 -29056910#2 -29056910#0 -4270676 4878396 226951665#0 226951665#2 221891973 -555489258 -154214807#1 -864157203"/>
    </vehicle>
    <vehicle id="38" depart="170.02">
        <route edges="666743346 478729209 5036493 478729208 -4211541#0 -478664899#2 5197314#0 5036921#1 -3850464 3849560#0 -5001383#3 -246054842#1 -4252297#1 -478702800#1 -617713589 -617713588 -4252298#1 -1082761836#1 -370021202 -370021204#1 -370021205 -370021203 -23126672 -250578973#1 -5777004 1185360311 1185360312 4526637 -E8"/>
    </vehicle>
    <vehicle id="39" depart="174.50">
        <route edges="-4526637 4526638 -238986996#2 -478702807 171768913 820117159 478702808 23681873 4526643 4604619#0 4604626#0 5001411 622459373 23186963#0 23186963#1 368003201 -187007954#1 -227758448 967346763#0 972211314 66569426#0 154795862#0 704223651#0 704223653#0 -729966361 704223658#0 -704223660#1 -4018945#1 1210308506 -403951935 -5155576#1 -23236020 -358521171#2 927294309#0 22464709 -4409713"/>
    </vehicle>
    <vehicle id="40" depart="178.97">
        <route edges="23516221 32388428#0 826996107#0 4084023#0 69403899#0 2956325#0 233032038#0 42178343#0 -4791806#1 4235347 -3908331 -3908329 -3908324 -3908327#1 -231668414 -3987824 -2956313#2 -2956313#0 -202554454#2 -158080155#1 4626645 -289904445 704223635#0 704223634 241396409#0 4684193 266896477 -301944112 -301944110#1 -301941503#1 434919033 4871773#0 3468 29172857 467563936 23186618#0 132911044#0 467563939 -132911043 -467564194 -23879656 4242869 4797483 4797481 29260563#0 -4926663 -5003268 -4720987#0 -481293332#1 -4592674#1"/>
    </vehicle>
    <vehicle id="41" depart="183.45">
        <route edges="266896477 -1267512463#1 6110692 42178344#0 42178697#0 -704223634 704223633#0 704223633#1 1258526697#1 219152741#0 28497046#0 66569406 187007954#0 4210631#0 368003202 23268804 -23268778 -5197318 -4604626#1 -4604619#3 1185360315 1185360314 -23681873 -23681872 -820117159 -171768913 478702807 238986996#0 1185360313 1185360311 1185360312 4526637 590583580"/>
    </vehicle>
    <vehicle id="42" depart="187.92">
        <route edges="-862085873#1 862085872#2 400509602 1158776113 4627399 1158776120 1012486049 1158776119 400509598 -674349403#1 -4018953#0 1158776117 1158776116 481282494#0 56995095 207289374#0 -29400477 -5654955 -23126387#0 -5196657 -4629637 -1112807035#1 292128487#0 30839836 4265013 -1035968701#2 702560790 23177745 -4018945#1 1210308506 54489190#0 54489542 403951938#0 618008355 964095500 60712787 -4073134#1 E11 42350816 -42350816"/>
    </vehicle>
    <vehicle id="43" depart="192.39">
        <route edges="E8 -4526637 4526638 1185360313 1185360311 1185360312 4526637 -E8 E5 E3 E2 793036879#0 4270674#0 358613490 154214807#0 555489258 217180780#0 226951667 217180783"/>
    </vehicle>
    <vehicle id="44" depart="196.87">
        <route edges="-25627762#3 171768914 -171768914 31252671 478728619 478729209 5036493 478729208 -4211541#0 -478664899#2 5197314#0 5036921#1 1104605978 4211277#0 362445600 227604413 574218753#0 -574218753#1 -227604414#1"/>
    </vehicle>
    <vehicle id="45" depart="201.34">
        <route edges="-276269813 132855246 487215984 487215985 448306611 518745245 518745244 4270675#0 448306610 -157690775#1 -157690775#0 -363361638#1 -363361638#0 -23112733 -171050472 -24797348#1 -24797343 -1112807035#1 292128487#0 30839836 4265013 -1035968701#2 702560790 23177745 -4018945#1 1210308506 704214696 -4246872#2 4268885#0 23901141 -232181901 -346948672#1 -906641986#0 361255883#0"/>
    </vehicle>
    <vehicle id="46" depart="205.82">
        <route edges="468436968 23841026#0 -4526636#2 -E8 E5 E3 -E10"/>
    </vehicle>
    <vehicle id="47" depart="210.29">
        <route edges="-23268778 -5197318 -276094794 -2955714#2 2955715 4243104 E4 224011563.475 61130965#0 157690775#1 448306609 4270675#2 448306612 -487215983 -239083451 -239083453 4627392 70845695 29056910#1 400509604#0 1191743041 1012486050 1158776113 4627399 1158776120 400509596 4627398#0 4627398#3 4627398#5 4627398#6 -765465025"/>
    </vehicle>
    <vehicle id="48" depart="214.77">
        <route edges="E8 -4526637 4526638 1185360313 5777004 250578973#0 23126671 4516433 370021205 370021204#0 370021202 1082761836#0 4252298#0 617713588 617713589 478702800#0 4252297#0 246054842#0 129834120#0 4211277#0 362445600 227604413"/>
    </vehicle>
    <vehicle id="49" depart="219.24">
        <route edges="E17 4720987#0.470 4926664 59762091#0 -4797481 -29259956 -112786021 23879656 467564194 132911043 -467563940 -467563938 -23186618#1 -467563936 -467563935 29172847#0 -434919033 33463745 33463744 4871772 -1267512463#1 6110692 42178344#0 42178697#0 -704223634 704223633#0 704223633#1 1258526697#1 219152741#0 28497046#0 66569406 -481277903 -478819319#1 -368004905#1 368004906#0 22466158 1292889948 241941714#0 494823373#0"/>
    </vehicle>
    <vehicle id="51" depart="228.19">
        <route edges="4232547#0 61722765 391280439 265399408 4243103#0 416095358#2 228891622 4243104 43320003 478332037 -61883421 -9234350#1 -224830909#1 4261979#0 4265010 1222942634#0 23112667#0 24797343 24797348#0 171050472 23112733 23112743"/>
    </vehicle>
    <vehicle id="52" depart="232.66">
        <route edges="-4576242 799316124 1167335768 799316125 -1086227026 4405485 619756923 30839833 4252302#0 4252302#1 4252302#2 4252301#0 -4936021#0 1185360312 4526637 -E8 E5 391280439"/>
    </vehicle>
    <vehicle id="53" depart="237.14">
        <route edges="-289904445 1258526697#1 219152741#0 28497046#0 66569406 -481277903 -478819319#1 -368004905#1 -4936477#1 -401624433#1 -30839836 -292128487#1 23112667#0 24797343 24797348#0 171050472 23112733 23112743 363361638#1 157690775#0 157690775#1 448306609 4270675#2 448306612 -487215983 -239083451 -239083453 -4892132 -1205351532 -409802672 -400780606 217180781#0 221891973 -555489258 -154214807#1 -864157203 -4270674#1 -793036879#1 -E2"/>
    </vehicle>
    <vehicle id="54" depart="241.61">
        <route edges="-E4 43320003 478332037 -61883421 -9234350#1 -224830909#1 4261979#0 4265010 1222942634#0 23112667#0 4871766#0 5196657 23126387#0 4374874#0 -4835831 -51555703 -1151494233 -4835828 970976032#0"/>
    </vehicle>
    <vehicle id="55" depart="246.09">
        <route edges="5014378#0 132911042#0 862085872#2 400509602 1158776113 4627399 1158776120 400509596 4627398#0 4627398#3 4627398#5 4627398#6 1292915345#0 4592674#0 -4592674#1"/>
    </vehicle>
    <vehicle id="56" depart="250.56">
        <route edges="157690550 -29319988 4627379 305543583#0 616908332#0 -793036879#1 -E2 -E3 391280439 -391280439"/>
    </vehicle>
    <vehicle id="57" depart="255.03">
        <route edges="66569426#0 28497046#0 66569406 -481277903 -478819319#1 -368004905#1 -4936477#1 -401624433#1 -30839836 -292128487#1 23112667#0 4871766#0 5196657 23126387#0 5654955 29400477 29400458 -447012833 -4018954 4018955 1158776118 481282492 4018953#1 400509599 1191743042 1012486052 1191743041 400509603 -862085873#1 -862085872#1 5022005#0"/>
    </vehicle>
    <vehicle id="58" depart="259.51">
        <route edges="-4641047#1 -276124816 -481288662 -4018953#0 1158776117 1158776116 4018955 -481282493 -225885320 -4892132 -1205351532 4803058 4629641 E1 -E3 391280439"/>
    </vehicle>
    <vehicle id="59" depart="263.98">
        <route edges="3017281#0 132858610 4018942 4018943 4936976#0 54497794 975294056 1222725745 236680742 -40893861#2 1035968701#0 -401624433#1 -30839836 -292128487#1 23112667#0 4871766#0 5196657 23126387#0 29399605 205960440#0 205960440#1 -338672406#2"/>
    </vehicle>
    <vehicle id="60" depart="268.46">
        <route edges="4627398#6 -765465025 -4627398#5 -4627398#4 -4627398#2 400509597 1158776119 1158776114 1191743042 400509605#0 -29056910#2 -276269812 -276269813 -4892132 4627382 224011563 -E4 -4243104 -2955715 23744806 276094794 -4604626#1 -4604619#3 1185360315 -840089453 -4526644#1 -1082761836#1 -370021202 -370021204#1 -370021205 -370021203 4516434#0 48197370 48197372#0 23143564"/>
    </vehicle>
    <vehicle id="61" depart="272.93">
        <route edges="4629738#0 -270728095 4232547#0 61722765 391280439 265399408 4243103#0 416095358#2 228891622 4243104 43320003 478332037 -61883421 -9234350#1 -224830909#1 4261979#0 4265010 1222942634#0 292128487#0 30839836 4265013 -1035968701#2 702560790 23177745 -4018945#1 1210308506 -403951935 -5155576#1 -23236020 -358521171#2 927294309#0 -22464711 4393877 227749742#0"/>
    </vehicle>
    <vehicle id="62" depart="277.41">
        <route edges="-1035968701#2 1035968701#0 -401624433#1 -30839836 -292128487#1 23112667#0 4871766#0 5196657 23126387#0 5654955 29400477 29400458 -447012833 -4018954 4018955 -481282493"/>
    </vehicle>
    <vehicle id="63" depart="281.88">
        <route edges="-123564625#0 2955715 4243104 43320003 478332037 -61883421 -9234350#1 -224830909#1 4261979#0 4265010 1222942634#0 23112667#0 4871766#0 5196657 23126387#0 5654955 29400477 29400458 5732851 5048694 852470598"/>
    </vehicle>
    <vehicle id="64" depart="286.35">
        <route edges="5024413 -314570567#2 -72457696 -478332036#1 -4640983#1 1158776116 4018955 1158776118 481282492"/>
    </vehicle>
    <vehicle id="65" depart="290.83">
        <route edges="-4720987#0 -481293332#1 -4592674#1 -1292915345#1 -765465025 -4627398#5 -4627398#4 -4627398#2 400509597 1158776119 1158776114 1191743042 400509605#0 -29056910#2 -276269812 -276269813 132855246 487215984 487215985 448306611 518745245 518745244 4270675#0 448306610 -157690775#1 -157690775#0 -23165842#1 -23165842#0"/>
    </vehicle>
    <vehicle id="66" depart="295.30">
        <route edges="5014378#0 -156258374#1 -360158535#3 360158538 928960437 935027705"/>
    </vehicle>
    <vehicle id="67" depart="299.78">
        <route edges="-24343421#3 -4211541#1 -4211541#0 -478664899#2 5197314#0 5036921#1 -3850464 4210569 807148182 23186963#1 368003201 -187007954#1 -481277903 -478819319#1 -368004905#1 -4936477#1 -401624433#1 -30839836 -292128487#1 23112667#0 24797343 24797348#0 171050472 23112733 23112743 363361638#1 157690775#0 157690775#1 448306609 4270675#2 448306612 -487215983 -239083451 -239083453 -4892132 -1205351532 -409802672 -400780606 217180781#0 221891973 -555489258 -154214807#1 154214807#0"/>
    </vehicle>
    <vehicle id="68" depart="304.25">
        <route edges="-23681643#2 E7 4629738#0 232201799 232201798 -E1 -E10 -46296410 -33492304 409802674#0 1205351531 4627392"/>
    </vehicle>
    <vehicle id="69" depart="308.73">
        <route edges="4628747#0 -358612599 154214821 358612595 793036879#0 4270674#0 358613490 154214807#0 555489258 217180779 1209032091#0 1209032090 221891974#0 221891974#1 217180785 400780610 409802674#0 1205351531 4018957 239083442 1158776118 1158776117 4640983#0 478332036#0 852470598 5024413 4915132 5055514 4915129 23103090 419698160 23103089#0 23103089#1 4390337 4390336#0 -4835699#1 4243203 -132911043 -467564194 -467564195 -467564196 -242732804 467564197 -292128480#1"/>
    </vehicle>
    <vehicle id="70" depart="313.20">
        <route edges="1228880049 -4793798 -4793800#2 -4793800#1 -4801255 -5055515 -45212491 -314570567#2 -72457696 -478332036#1 -4640983#1 1158776116 4018955 -481282493 -225885320 -4892132 -1205351532 4803058 4629641 E1 E1.776 -232201798 -232201799 232201799"/>
    </vehicle>
    <vehicle id="71" depart="317.67">
        <route edges="-4526637 4526638 -238986996#2 -478702807 171768913 820117159 478702808 23681873 4526643 4604619#0 4604626#0 5001411 622459373 23186963#0 23186963#1 368003201 -187007954#1 -481277903 -478819319#1 -368004905#1 -4936477#1 -401624433#1 -30839836 -292128487#1 23112667#0 4871766#0 5196657 23126387#0 5654955 29400477 29400458 5732851 5048694 852470598 5024413"/>
    </vehicle>
    <vehicle id="72" depart="322.15">
        <route edges="-E1 -E10 -46296410 -33492304 409802674#0 1205351531 4018957 239083442 1158776118 1158776117 4640983#0 478332036#0 852470598 5024413 4915132 5055514 4915129 23103090 419698160 23103089#0 -23103089#0 -419698160"/>
    </vehicle>
    <vehicle id="73" depart="326.62">
        <route edges="23112743 363361638#1 -23165842#1 -23165842#0 -E4 -4243104 -45212486 5043492 -416095358#1 -265399407#2 -391280439 -E5 E8 590583580 4526635#0 4526634 1158771801 1158771800 1158771799 4396435 1158771805 4487543 4526625#0"/>
    </vehicle>
    <vehicle id="74" depart="331.10">
        <route edges="-4073134#1 4073134#0 1202586595#1 -964095500 -618008355 -403951938#1 -54489542 -54489190#2 704214696 -4246872#2 4268885#0 23901141 -232181901 -346948672#1 -906641986#0 -4206587 477949267#0 477949267#2 666743346 -478728619"/>
    </vehicle>
    <vehicle id="75" depart="335.57">
        <route edges="E7 4629738#0 232201799 232201798 -E1 -E10 -46296410 -33492304 409802674#0 1205351531 4018957 239083442 1158776118 481282492 4018953#1"/>
    </vehicle>
    <vehicle id="76" depart="340.05">
        <route edges="-E17 -4641047#0 -5048694 221887459"/>
    </vehicle>
    <vehicle id="77" depart="344.52">
        <route edges="-29319973 -29319988 4627379 305543583#0 616908332#0 -793036879#1 -E2 -E3 -391280439.565 -4243102"/>
    </vehicle>
    <vehicle id="78" depart="348.99">
        <route edges="-4827320 -202554454#2 -535767419#1 1296756535 4073114#0 4073114#1 4073114#2 4242657#0 236680742 -40893861#2 1035968701#0 -401624433#1 -30839836 -292128487#1 23112667#0 24797343 24797348#0 171050472 23112733 23112743 363361638#1 157690775#0 157690775#1 448306609 4270675#2 448306612 -487215983 -239083451 -239083453 4627392 70845695 29056910#1"/>
    </vehicle>
    <vehicle id="79" depart="353.47">
        <route edges="-4270676 4878396 24351547 221891974#1 217180785 400780610 409802674#0 1205351531 132855246 487215984 487215985 448306611 518745245 518745244 4270675#0 448306610 -157690775#1 -157690775#0 -363361638#1 -363361638#0 -23112733 -171050472 -24797348#1 -24797343 -1112807035#1 292128487#0 30839836 4265013 -1035968701#2 702560790 23177745 -4018945#1 4242657#0 -1222725745 -4242656#1 -4242654"/>
    </vehicle>
    <vehicle id="80" depart="357.94">
        <route edges="-23681643#2 E6 E8 -4526637 4526638 -238986996#2 -478702807 171768913 820117159 478702808 23681873 4526643 4604619#0 4604626#0 5001411 622459373 23186963#0 23186963#1 368003201"/>
    </vehicle>
    <vehicle id="81" depart="362.42">
        <route edges="-4270676 4878396 24351547 221891974#1 217180785 400780610 409802674#0 4627382 224011563 -E4 -4243104 -2955715 23744806 276094794 -4604626#1 -4604619#3 1185360315 -840089453 221138026#0 617713588 617713589"/>
    </vehicle>
    <vehicle id="82" depart="366.89">
        <route edges="4892123#2 619756926 30839832 619756923 30839833 4252302#0 4252302#1 4252302#2 4252301#0 4252301#1 4892130 4252299#0 250578973#0 23126671 4516433 370021205 370021204#0 370021202 840089452#0 840089453 1185360314 4526643 4604619#0 4604626#0 5001411 622459373 23186963#0 23186963#1 368003201 -187007954#1 -481277903 -478819319#1 478819319#0 481277903 187007954#0 4210631#0 368003202 23268804 -23268778"/>
    </vehicle>
    <vehicle id="83" depart="371.37">
        <route edges="-4404978#1 -478138588#1 -23880055#1 -314148817 -4989509 -171768914 31252671 478728619 478729209 5036493 478729208 -4211541#0 -478664899#2 478664899#2 4211541#0"/>
    </vehicle>
    <vehicle id="84" depart="375.84">
        <route edges="-4235348#1 -3908331 -3908329 -3908324 -3908327#1 -231668414 -3987824 -2956313#2 -2956313#0 -202554454#2 -158080155#1 4626645 -289904445 1258526697#1 219152741#0 28497046#0 66569406 187007954#0 4210631#0 368003202 23268804 -23268778 -5197318 -276094794 -2955714#2"/>
    </vehicle>
    <vehicle id="85" depart="380.31">
        <route edges="852470598 5024413 19885632 23118801 -221887459 -5732851 207289374#0 -29400477 -5654955 29399605 205960440#0 205960440#1 86057327#0 242776021#0"/>
    </vehicle>
    <vehicle id="86" depart="384.79">
        <route edges="1202586596#0 1202586595#0 1202586595#1 4060860#0 -158080155#1 4626645 -289904445 704223635#0 704223634 241396409#0 4684193 266896477 -301944112 -301944110#1 -301941503#1 434919033 4871773#0 3468 29172857 467563936 23186618#0 132911044#0 467563939 -4243203 4835699#0 -4390336#1 -4390337 -23103089#1 -23103089#0 -419698160 -23103090 -4915129 -5055515 -45212491 -314570567#2 -72457696 4641047#0 4641047#1"/>
    </vehicle>
    <vehicle id="87" depart="389.26">
        <route edges="477949267#2 666743346 478729209 5036493 478729208 -4211541#0 -478664899#2 -478664899#1 -4287791 -4211543 -4211545 -4211547 -396922880 -396922879"/>
    </vehicle>
    <vehicle id="88" depart="393.74">
        <route edges="-265399407#2 -391280439 E3 E2 793036879#0 4270674#0 358613490 154214807#0 555489258 217180780#0 226951667 217180783 154214826 29056910#1 400509604#0 1191743041 1012486050 1158776113 4627399 1158776120 400509596 4627398#0 4627398#3 4627398#5 4627398#6 1292915345#0 4592674#0 481293332#0 4720987#0 -E17"/>
    </vehicle>
    <vehicle id="89" depart="398.21">
        <route edges="-E10 -46296410 -33492304 409802674#0 1205351531 4018957 239083442 1158776118 1158776117 4640983#0 478332036#0 852470598 5024413 4915132 5055514 4801255 4793800#0 4793800#2 4797483 4797481 29260563#0 75723584#0 -29260956 4345657 112789656#0"/>
    </vehicle>
    <vehicle id="90" depart="402.69">